  Page 1                                    Mon Feb  1 16:07:59 2016

  ******************************************************************
  *                           E P A N E T                          *
  *                   Hydraulic and Water Quality                  *
  *                   Analysis for Pipe Networks                   *
  *                         Version 2.00.12                        *
  ******************************************************************
  
  Analysis begun Mon Feb  1 16:07:59 2016

  WARNING: FCV 78 open but cannot deliver flow at 0:00:00 hrs.
  
  WARNING: FCV 78 open but cannot deliver flow at 0:10:00 hrs.
  
  WARNING: FCV 78 open but cannot deliver flow at 0:20:00 hrs.
  
  WARNING: FCV 78 open but cannot deliver flow at 0:30:00 hrs.
  
  WARNING: FCV 78 open but cannot deliver flow at 0:40:00 hrs.
  
  WARNING: FCV 78 open but cannot deliver flow at 0:50:00 hrs.
  
  WARNING: FCV 78 open but cannot deliver flow at 1:00:00 hrs.
  
  WARNING: FCV 78 open but cannot deliver flow at 1:10:00 hrs.
  
  WARNING: FCV 78 open but cannot deliver flow at 1:20:00 hrs.
  
  WARNING: FCV 76 open but cannot deliver flow at 1:20:43 hrs.
  WARNING: FCV 3 open but cannot deliver flow at 1:20:43 hrs.
  
  WARNING: FCV 78 open but cannot deliver flow at 1:30:43 hrs.
  
  WARNING: FCV 76 open but cannot deliver flow at 1:31:49 hrs.
  WARNING: FCV 3 open but cannot deliver flow at 1:31:49 hrs.
  
  WARNING: FCV 78 open but cannot deliver flow at 1:41:49 hrs.
  
  WARNING: FCV 76 open but cannot deliver flow at 1:42:55 hrs.
  WARNING: FCV 3 open but cannot deliver flow at 1:42:55 hrs.
  
  WARNING: FCV 78 open but cannot deliver flow at 1:52:55 hrs.
  
  WARNING: FCV 76 open but cannot deliver flow at 1:54:01 hrs.
  WARNING: FCV 3 open but cannot deliver flow at 1:54:01 hrs.
  
  WARNING: FCV 78 open but cannot deliver flow at 2:00:00 hrs.
  
  WARNING: FCV 76 open but cannot deliver flow at 2:00:40 hrs.
  WARNING: FCV 3 open but cannot deliver flow at 2:00:40 hrs.
  
  WARNING: FCV 78 open but cannot deliver flow at 2:10:40 hrs.
  
  WARNING: FCV 76 open but cannot deliver flow at 2:11:46 hrs.
  WARNING: FCV 3 open but cannot deliver flow at 2:11:46 hrs.
  
  WARNING: FCV 78 open but cannot deliver flow at 2:21:46 hrs.
  
  WARNING: FCV 76 open but cannot deliver flow at 2:22:52 hrs.
  WARNING: FCV 3 open but cannot deliver flow at 2:22:52 hrs.
  
  WARNING: FCV 78 open but cannot deliver flow at 2:32:52 hrs.
  
  WARNING: FCV 76 open but cannot deliver flow at 2:33:58 hrs.
  WARNING: FCV 3 open but cannot deliver flow at 2:33:58 hrs.
  
  WARNING: FCV 74 open but cannot deliver flow at 2:36:41 hrs.
  WARNING: FCV 3 open but cannot deliver flow at 2:36:41 hrs.
  
  WARNING: FCV 76 open but cannot deliver flow at 2:36:59 hrs.
  WARNING: FCV 3 open but cannot deliver flow at 2:36:59 hrs.
  
  WARNING: FCV 74 open but cannot deliver flow at 2:37:03 hrs.
  WARNING: FCV 3 open but cannot deliver flow at 2:37:03 hrs.
  
  WARNING: FCV 76 open but cannot deliver flow at 2:47:03 hrs.
  WARNING: FCV 3 open but cannot deliver flow at 2:47:03 hrs.
  
  WARNING: FCV 74 open but cannot deliver flow at 2:49:03 hrs.
  WARNING: FCV 3 open but cannot deliver flow at 2:49:03 hrs.
  
  WARNING: FCV 76 open but cannot deliver flow at 2:49:16 hrs.
  WARNING: FCV 3 open but cannot deliver flow at 2:49:16 hrs.
  
  WARNING: FCV 74 open but cannot deliver flow at 2:49:19 hrs.
  WARNING: FCV 3 open but cannot deliver flow at 2:49:19 hrs.
  
  WARNING: FCV 76 open but cannot deliver flow at 2:52:05 hrs.
  WARNING: FCV 65 open but cannot deliver flow at 2:52:05 hrs.
  WARNING: FCV 3 open but cannot deliver flow at 2:52:05 hrs.
  
  WARNING: FCV 74 open but cannot deliver flow at 2:52:38 hrs.
  WARNING: FCV 3 open but cannot deliver flow at 2:52:38 hrs.
  
  WARNING: FCV 76 open but cannot deliver flow at 2:52:42 hrs.
  WARNING: FCV 65 open but cannot deliver flow at 2:52:42 hrs.
  WARNING: FCV 3 open but cannot deliver flow at 2:52:42 hrs.
  
  WARNING: FCV 76 open but cannot deliver flow at 2:52:43 hrs.
  WARNING: FCV 74 open but cannot deliver flow at 2:52:43 hrs.
  WARNING: FCV 65 open but cannot deliver flow at 2:52:43 hrs.
  WARNING: FCV 3 open but cannot deliver flow at 2:52:43 hrs.
  
  WARNING: FCV 78 open but cannot deliver flow at 3:00:00 hrs.
  
  WARNING: FCV 76 open but cannot deliver flow at 3:00:48 hrs.
  WARNING: FCV 3 open but cannot deliver flow at 3:00:48 hrs.
  
  WARNING: FCV 78 open but cannot deliver flow at 3:01:00 hrs.
  WARNING: FCV 65 open but cannot deliver flow at 3:01:00 hrs.
  
  WARNING: FCV 76 open but cannot deliver flow at 3:01:01 hrs.
  WARNING: FCV 65 open but cannot deliver flow at 3:01:01 hrs.
  WARNING: FCV 3 open but cannot deliver flow at 3:01:01 hrs.
  
  WARNING: FCV 74 open but cannot deliver flow at 3:01:28 hrs.
  WARNING: FCV 3 open but cannot deliver flow at 3:01:28 hrs.
  
  WARNING: FCV 76 open but cannot deliver flow at 3:01:31 hrs.
  WARNING: FCV 65 open but cannot deliver flow at 3:01:31 hrs.
  WARNING: FCV 3 open but cannot deliver flow at 3:01:31 hrs.
  
  WARNING: FCV 76 open but cannot deliver flow at 3:01:32 hrs.
  WARNING: FCV 74 open but cannot deliver flow at 3:01:32 hrs.
  WARNING: FCV 65 open but cannot deliver flow at 3:01:32 hrs.
  WARNING: FCV 3 open but cannot deliver flow at 3:01:32 hrs.
  
  WARNING: FCV 78 open but cannot deliver flow at 3:11:32 hrs.
  
  WARNING: FCV 76 open but cannot deliver flow at 3:12:38 hrs.
  WARNING: FCV 3 open but cannot deliver flow at 3:12:38 hrs.
  
  WARNING: FCV 78 open but cannot deliver flow at 3:12:54 hrs.
  WARNING: FCV 65 open but cannot deliver flow at 3:12:54 hrs.
  
  WARNING: FCV 76 open but cannot deliver flow at 3:12:56 hrs.
  WARNING: FCV 65 open but cannot deliver flow at 3:12:56 hrs.
  WARNING: FCV 3 open but cannot deliver flow at 3:12:56 hrs.
  
  WARNING: FCV 74 open but cannot deliver flow at 3:13:32 hrs.
  WARNING: FCV 3 open but cannot deliver flow at 3:13:32 hrs.
  
  WARNING: FCV 76 open but cannot deliver flow at 3:13:36 hrs.
  WARNING: FCV 3 open but cannot deliver flow at 3:13:36 hrs.
  
  WARNING: FCV 76 open but cannot deliver flow at 3:13:37 hrs.
  WARNING: FCV 74 open but cannot deliver flow at 3:13:37 hrs.
  WARNING: FCV 65 open but cannot deliver flow at 3:13:37 hrs.
  WARNING: FCV 3 open but cannot deliver flow at 3:13:37 hrs.
  
  WARNING: FCV 78 open but cannot deliver flow at 3:23:37 hrs.
  
  WARNING: FCV 76 open but cannot deliver flow at 3:24:43 hrs.
  WARNING: FCV 3 open but cannot deliver flow at 3:24:43 hrs.
  
  WARNING: FCV 78 open but cannot deliver flow at 3:24:59 hrs.
  WARNING: FCV 65 open but cannot deliver flow at 3:24:59 hrs.
  
  WARNING: FCV 76 open but cannot deliver flow at 3:25:01 hrs.
  WARNING: FCV 65 open but cannot deliver flow at 3:25:01 hrs.
  WARNING: FCV 3 open but cannot deliver flow at 3:25:01 hrs.
  
  WARNING: FCV 74 open but cannot deliver flow at 3:25:37 hrs.
  WARNING: FCV 3 open but cannot deliver flow at 3:25:37 hrs.
  
  WARNING: FCV 76 open but cannot deliver flow at 3:25:41 hrs.
  WARNING: FCV 3 open but cannot deliver flow at 3:25:41 hrs.
  
  WARNING: FCV 76 open but cannot deliver flow at 3:25:42 hrs.
  WARNING: FCV 74 open but cannot deliver flow at 3:25:42 hrs.
  WARNING: FCV 65 open but cannot deliver flow at 3:25:42 hrs.
  WARNING: FCV 3 open but cannot deliver flow at 3:25:42 hrs.
  
  WARNING: FCV 78 open but cannot deliver flow at 3:35:42 hrs.
  
  WARNING: FCV 76 open but cannot deliver flow at 3:36:48 hrs.
  WARNING: FCV 3 open but cannot deliver flow at 3:36:48 hrs.
  
  WARNING: FCV 78 open but cannot deliver flow at 3:37:04 hrs.
  WARNING: FCV 65 open but cannot deliver flow at 3:37:04 hrs.
  
  WARNING: FCV 76 open but cannot deliver flow at 3:37:06 hrs.
  WARNING: FCV 65 open but cannot deliver flow at 3:37:06 hrs.
  WARNING: FCV 3 open but cannot deliver flow at 3:37:06 hrs.
  
  WARNING: FCV 74 open but cannot deliver flow at 3:37:42 hrs.
  WARNING: FCV 3 open but cannot deliver flow at 3:37:42 hrs.
  
  WARNING: FCV 76 open but cannot deliver flow at 3:37:46 hrs.
  WARNING: FCV 3 open but cannot deliver flow at 3:37:46 hrs.
  
  WARNING: FCV 76 open but cannot deliver flow at 3:37:47 hrs.
  WARNING: FCV 74 open but cannot deliver flow at 3:37:47 hrs.
  WARNING: FCV 65 open but cannot deliver flow at 3:37:47 hrs.
  WARNING: FCV 3 open but cannot deliver flow at 3:37:47 hrs.
  
  WARNING: FCV 78 open but cannot deliver flow at 3:45:10 hrs.
  WARNING: FCV 3 open but cannot deliver flow at 3:45:10 hrs.
  
  WARNING: FCV 76 open but cannot deliver flow at 3:45:59 hrs.
  WARNING: FCV 3 open but cannot deliver flow at 3:45:59 hrs.
  
  WARNING: FCV 78 open but cannot deliver flow at 3:46:08 hrs.
  WARNING: FCV 3 open but cannot deliver flow at 3:46:08 hrs.
  
  WARNING: FCV 78 open but cannot deliver flow at 3:46:09 hrs.
  WARNING: FCV 76 open but cannot deliver flow at 3:46:09 hrs.
  WARNING: FCV 3 open but cannot deliver flow at 3:46:09 hrs.
  
  WARNING: FCV 78 open but cannot deliver flow at 3:46:10 hrs.
  WARNING: FCV 76 open but cannot deliver flow at 3:46:10 hrs.
  WARNING: FCV 65 open but cannot deliver flow at 3:46:10 hrs.
  WARNING: FCV 3 open but cannot deliver flow at 3:46:10 hrs.
  
  WARNING: FCV 74 open but cannot deliver flow at 3:46:39 hrs.
  WARNING: FCV 3 open but cannot deliver flow at 3:46:39 hrs.
  
  WARNING: FCV 76 open but cannot deliver flow at 3:46:42 hrs.
  WARNING: FCV 65 open but cannot deliver flow at 3:46:42 hrs.
  WARNING: FCV 3 open but cannot deliver flow at 3:46:42 hrs.
  
  WARNING: FCV 76 open but cannot deliver flow at 3:46:43 hrs.
  WARNING: FCV 74 open but cannot deliver flow at 3:46:43 hrs.
  WARNING: FCV 65 open but cannot deliver flow at 3:46:43 hrs.
  WARNING: FCV 3 open but cannot deliver flow at 3:46:43 hrs.
  
  WARNING: FCV 78 open but cannot deliver flow at 3:46:45 hrs.
  WARNING: FCV 74 open but cannot deliver flow at 3:46:45 hrs.
  WARNING: FCV 65 open but cannot deliver flow at 3:46:45 hrs.
  WARNING: FCV 3 open but cannot deliver flow at 3:46:45 hrs.
  
  WARNING: FCV 76 open but cannot deliver flow at 3:56:45 hrs.
  WARNING: FCV 3 open but cannot deliver flow at 3:56:45 hrs.
  
  WARNING: FCV 78 open but cannot deliver flow at 3:58:07 hrs.
  WARNING: FCV 65 open but cannot deliver flow at 3:58:07 hrs.
  
  WARNING: FCV 76 open but cannot deliver flow at 3:58:16 hrs.
  WARNING: FCV 3 open but cannot deliver flow at 3:58:16 hrs.
  
  WARNING: FCV 76 open but cannot deliver flow at 3:58:17 hrs.
  WARNING: FCV 65 open but cannot deliver flow at 3:58:17 hrs.
  WARNING: FCV 3 open but cannot deliver flow at 3:58:17 hrs.
  
  WARNING: FCV 78 open but cannot deliver flow at 3:58:39 hrs.
  WARNING: FCV 3 open but cannot deliver flow at 3:58:39 hrs.
  
  WARNING: FCV 76 open but cannot deliver flow at 3:58:42 hrs.
  WARNING: FCV 65 open but cannot deliver flow at 3:58:42 hrs.
  WARNING: FCV 3 open but cannot deliver flow at 3:58:42 hrs.
  
  WARNING: FCV 78 open but cannot deliver flow at 3:58:43 hrs.
  WARNING: FCV 76 open but cannot deliver flow at 3:58:43 hrs.
  WARNING: FCV 65 open but cannot deliver flow at 3:58:43 hrs.
  WARNING: FCV 3 open but cannot deliver flow at 3:58:43 hrs.
  
  WARNING: FCV 74 open but cannot deliver flow at 3:58:46 hrs.
  WARNING: FCV 65 open but cannot deliver flow at 3:58:46 hrs.
  WARNING: FCV 3 open but cannot deliver flow at 3:58:46 hrs.
  
  WARNING: FCV 78 open but cannot deliver flow at 3:58:47 hrs.
  WARNING: FCV 76 open but cannot deliver flow at 3:58:47 hrs.
  WARNING: FCV 74 open but cannot deliver flow at 3:58:47 hrs.
  WARNING: FCV 3 open but cannot deliver flow at 3:58:47 hrs.
  
  WARNING: FCV 78 open but cannot deliver flow at 3:58:48 hrs.
  WARNING: FCV 76 open but cannot deliver flow at 3:58:48 hrs.
  WARNING: FCV 74 open but cannot deliver flow at 3:58:48 hrs.
  WARNING: FCV 65 open but cannot deliver flow at 3:58:48 hrs.
  WARNING: FCV 3 open but cannot deliver flow at 3:58:48 hrs.
  
  WARNING: FCV 78 open but cannot deliver flow at 4:00:00 hrs.
  
  WARNING: FCV 76 open but cannot deliver flow at 4:00:09 hrs.
  WARNING: FCV 3 open but cannot deliver flow at 4:00:09 hrs.
  
  WARNING: FCV 78 open but cannot deliver flow at 4:00:11 hrs.
  WARNING: FCV 65 open but cannot deliver flow at 4:00:11 hrs.
  
  WARNING: FCV 76 open but cannot deliver flow at 4:00:19 hrs.
  WARNING: FCV 74 open but cannot deliver flow at 4:00:19 hrs.
  WARNING: FCV 3 open but cannot deliver flow at 4:00:19 hrs.
  
  WARNING: FCV 78 open but cannot deliver flow at 4:00:22 hrs.
  WARNING: FCV 65 open but cannot deliver flow at 4:00:22 hrs.
  
  WARNING: FCV 76 open but cannot deliver flow at 4:00:23 hrs.
  WARNING: FCV 74 open but cannot deliver flow at 4:00:23 hrs.
  WARNING: FCV 65 open but cannot deliver flow at 4:00:23 hrs.
  WARNING: FCV 3 open but cannot deliver flow at 4:00:23 hrs.
  
  WARNING: FCV 78 open but cannot deliver flow at 4:00:32 hrs.
  WARNING: FCV 3 open but cannot deliver flow at 4:00:32 hrs.
  
  WARNING: FCV 76 open but cannot deliver flow at 4:00:34 hrs.
  WARNING: FCV 3 open but cannot deliver flow at 4:00:34 hrs.
  
  WARNING: FCV 78 open but cannot deliver flow at 4:00:35 hrs.
  WARNING: FCV 76 open but cannot deliver flow at 4:00:35 hrs.
  WARNING: FCV 65 open but cannot deliver flow at 4:00:35 hrs.
  WARNING: FCV 3 open but cannot deliver flow at 4:00:35 hrs.
  
  WARNING: FCV 74 open but cannot deliver flow at 4:00:37 hrs.
  WARNING: FCV 65 open but cannot deliver flow at 4:00:37 hrs.
  WARNING: FCV 3 open but cannot deliver flow at 4:00:37 hrs.
  
  WARNING: FCV 78 open but cannot deliver flow at 4:00:38 hrs.
  WARNING: FCV 76 open but cannot deliver flow at 4:00:38 hrs.
  WARNING: FCV 74 open but cannot deliver flow at 4:00:38 hrs.
  WARNING: FCV 3 open but cannot deliver flow at 4:00:38 hrs.
  
  WARNING: FCV 78 open but cannot deliver flow at 4:00:39 hrs.
  WARNING: FCV 76 open but cannot deliver flow at 4:00:39 hrs.
  WARNING: FCV 65 open but cannot deliver flow at 4:00:39 hrs.
  WARNING: FCV 3 open but cannot deliver flow at 4:00:39 hrs.
  
  WARNING: FCV 74 open but cannot deliver flow at 4:00:40 hrs.
  WARNING: FCV 65 open but cannot deliver flow at 4:00:40 hrs.
  WARNING: FCV 3 open but cannot deliver flow at 4:00:40 hrs.
  
  WARNING: FCV 78 open but cannot deliver flow at 4:00:41 hrs.
  WARNING: FCV 76 open but cannot deliver flow at 4:00:41 hrs.
  WARNING: FCV 74 open but cannot deliver flow at 4:00:41 hrs.
  WARNING: FCV 65 open but cannot deliver flow at 4:00:41 hrs.
  WARNING: FCV 40 open but cannot deliver flow at 4:00:41 hrs.
  WARNING: FCV 3 open but cannot deliver flow at 4:00:41 hrs.
  
  WARNING: FCV 78 open but cannot deliver flow at 4:10:41 hrs.
  
  WARNING: FCV 76 open but cannot deliver flow at 4:13:10 hrs.
  WARNING: FCV 3 open but cannot deliver flow at 4:13:10 hrs.
  
  WARNING: FCV 78 open but cannot deliver flow at 4:13:51 hrs.
  WARNING: FCV 65 open but cannot deliver flow at 4:13:51 hrs.
  
  WARNING: FCV 76 open but cannot deliver flow at 4:14:01 hrs.
  WARNING: FCV 3 open but cannot deliver flow at 4:14:01 hrs.
  
  WARNING: FCV 78 open but cannot deliver flow at 4:14:04 hrs.
  WARNING: FCV 65 open but cannot deliver flow at 4:14:04 hrs.
  
  WARNING: FCV 76 open but cannot deliver flow at 4:14:05 hrs.
  WARNING: FCV 65 open but cannot deliver flow at 4:14:05 hrs.
  WARNING: FCV 3 open but cannot deliver flow at 4:14:05 hrs.
  
  WARNING: FCV 74 open but cannot deliver flow at 4:15:43 hrs.
  WARNING: FCV 3 open but cannot deliver flow at 4:15:43 hrs.
  
  WARNING: FCV 40 open but cannot deliver flow at 4:15:51 hrs.
  WARNING: FCV 3 open but cannot deliver flow at 4:15:51 hrs.
  
  WARNING: FCV 74 open but cannot deliver flow at 4:15:55 hrs.
  WARNING: FCV 3 open but cannot deliver flow at 4:15:55 hrs.
  
  WARNING: FCV 40 open but cannot deliver flow at 4:15:57 hrs.
  WARNING: FCV 3 open but cannot deliver flow at 4:15:57 hrs.
  
  WARNING: FCV 74 open but cannot deliver flow at 4:15:58 hrs.
  WARNING: FCV 40 open but cannot deliver flow at 4:15:58 hrs.
  WARNING: FCV 3 open but cannot deliver flow at 4:15:58 hrs.
  
  WARNING: FCV 76 open but cannot deliver flow at 4:16:07 hrs.
  WARNING: FCV 3 open but cannot deliver flow at 4:16:07 hrs.
  
  WARNING: FCV 74 open but cannot deliver flow at 4:16:12 hrs.
  WARNING: FCV 40 open but cannot deliver flow at 4:16:12 hrs.
  WARNING: FCV 3 open but cannot deliver flow at 4:16:12 hrs.
  
  WARNING: FCV 76 open but cannot deliver flow at 4:16:13 hrs.
  WARNING: FCV 74 open but cannot deliver flow at 4:16:13 hrs.
  WARNING: FCV 40 open but cannot deliver flow at 4:16:13 hrs.
  WARNING: FCV 3 open but cannot deliver flow at 4:16:13 hrs.
  
  WARNING: FCV 76 open but cannot deliver flow at 4:16:14 hrs.
  WARNING: FCV 65 open but cannot deliver flow at 4:16:14 hrs.
  WARNING: FCV 3 open but cannot deliver flow at 4:16:14 hrs.
  
  WARNING: FCV 74 open but cannot deliver flow at 4:16:15 hrs.
  WARNING: FCV 65 open but cannot deliver flow at 4:16:15 hrs.
  WARNING: FCV 40 open but cannot deliver flow at 4:16:15 hrs.
  WARNING: FCV 3 open but cannot deliver flow at 4:16:15 hrs.
  
  WARNING: FCV 78 open but cannot deliver flow at 4:17:30 hrs.
  WARNING: FCV 76 open but cannot deliver flow at 4:17:30 hrs.
  WARNING: FCV 3 open but cannot deliver flow at 4:17:30 hrs.
  
  WARNING: FCV 78 open but cannot deliver flow at 4:17:54 hrs.
  WARNING: FCV 65 open but cannot deliver flow at 4:17:54 hrs.
  
  WARNING: FCV 76 open but cannot deliver flow at 4:18:00 hrs.
  WARNING: FCV 3 open but cannot deliver flow at 4:18:00 hrs.
  
  WARNING: FCV 78 open but cannot deliver flow at 4:18:02 hrs.
  WARNING: FCV 65 open but cannot deliver flow at 4:18:02 hrs.
  
  WARNING: FCV 76 open but cannot deliver flow at 4:18:08 hrs.
  WARNING: FCV 74 open but cannot deliver flow at 4:18:08 hrs.
  WARNING: FCV 40 open but cannot deliver flow at 4:18:08 hrs.
  WARNING: FCV 3 open but cannot deliver flow at 4:18:08 hrs.
  
  WARNING: FCV 78 open but cannot deliver flow at 4:18:10 hrs.
  WARNING: FCV 65 open but cannot deliver flow at 4:18:10 hrs.
  
  WARNING: FCV 76 open but cannot deliver flow at 4:18:11 hrs.
  WARNING: FCV 74 open but cannot deliver flow at 4:18:11 hrs.
  WARNING: FCV 65 open but cannot deliver flow at 4:18:11 hrs.
  WARNING: FCV 40 open but cannot deliver flow at 4:18:11 hrs.
  WARNING: FCV 3 open but cannot deliver flow at 4:18:11 hrs.
  
  WARNING: FCV 78 open but cannot deliver flow at 4:18:16 hrs.
  WARNING: FCV 3 open but cannot deliver flow at 4:18:16 hrs.
  
  WARNING: FCV 78 open but cannot deliver flow at 4:18:17 hrs.
  WARNING: FCV 76 open but cannot deliver flow at 4:18:17 hrs.
  WARNING: FCV 65 open but cannot deliver flow at 4:18:17 hrs.
  WARNING: FCV 3 open but cannot deliver flow at 4:18:17 hrs.
  
  WARNING: FCV 74 open but cannot deliver flow at 4:18:19 hrs.
  WARNING: FCV 65 open but cannot deliver flow at 4:18:19 hrs.
  WARNING: FCV 40 open but cannot deliver flow at 4:18:19 hrs.
  WARNING: FCV 3 open but cannot deliver flow at 4:18:19 hrs.
  
  WARNING: FCV 78 open but cannot deliver flow at 4:18:20 hrs.
  WARNING: FCV 76 open but cannot deliver flow at 4:18:20 hrs.
  WARNING: FCV 74 open but cannot deliver flow at 4:18:20 hrs.
  WARNING: FCV 40 open but cannot deliver flow at 4:18:20 hrs.
  WARNING: FCV 3 open but cannot deliver flow at 4:18:20 hrs.
  
  WARNING: FCV 78 open but cannot deliver flow at 4:18:21 hrs.
  WARNING: FCV 76 open but cannot deliver flow at 4:18:21 hrs.
  WARNING: FCV 65 open but cannot deliver flow at 4:18:21 hrs.
  WARNING: FCV 3 open but cannot deliver flow at 4:18:21 hrs.
  
  WARNING: FCV 74 open but cannot deliver flow at 4:18:22 hrs.
  WARNING: FCV 65 open but cannot deliver flow at 4:18:22 hrs.
  WARNING: FCV 40 open but cannot deliver flow at 4:18:22 hrs.
  WARNING: FCV 3 open but cannot deliver flow at 4:18:22 hrs.
  
  WARNING: FCV 78 open but cannot deliver flow at 4:18:23 hrs.
  WARNING: FCV 76 open but cannot deliver flow at 4:18:23 hrs.
  WARNING: FCV 74 open but cannot deliver flow at 4:18:23 hrs.
  WARNING: FCV 65 open but cannot deliver flow at 4:18:23 hrs.
  WARNING: FCV 40 open but cannot deliver flow at 4:18:23 hrs.
  WARNING: FCV 3 open but cannot deliver flow at 4:18:23 hrs.
  
  WARNING: FCV 78 open but cannot deliver flow at 4:28:23 hrs.
  
  WARNING: FCV 76 open but cannot deliver flow at 4:30:52 hrs.
  WARNING: FCV 3 open but cannot deliver flow at 4:30:52 hrs.
  
  WARNING: FCV 78 open but cannot deliver flow at 4:31:33 hrs.
  WARNING: FCV 65 open but cannot deliver flow at 4:31:33 hrs.
  
  WARNING: FCV 76 open but cannot deliver flow at 4:31:43 hrs.
  WARNING: FCV 3 open but cannot deliver flow at 4:31:43 hrs.
  
  WARNING: FCV 78 open but cannot deliver flow at 4:31:46 hrs.
  WARNING: FCV 65 open but cannot deliver flow at 4:31:46 hrs.
  
  WARNING: FCV 76 open but cannot deliver flow at 4:31:47 hrs.
  WARNING: FCV 65 open but cannot deliver flow at 4:31:47 hrs.
  WARNING: FCV 3 open but cannot deliver flow at 4:31:47 hrs.
  
  WARNING: FCV 78 open but cannot deliver flow at 4:32:47 hrs.
  WARNING: FCV 66 open but cannot deliver flow at 4:32:47 hrs.
  
  WARNING: FCV 76 open but cannot deliver flow at 4:33:02 hrs.
  WARNING: FCV 3 open but cannot deliver flow at 4:33:02 hrs.
  
  WARNING: FCV 78 open but cannot deliver flow at 4:33:06 hrs.
  WARNING: FCV 66 open but cannot deliver flow at 4:33:06 hrs.
  WARNING: FCV 65 open but cannot deliver flow at 4:33:06 hrs.
  
  WARNING: FCV 76 open but cannot deliver flow at 4:33:07 hrs.
  WARNING: FCV 66 open but cannot deliver flow at 4:33:07 hrs.
  WARNING: FCV 65 open but cannot deliver flow at 4:33:07 hrs.
  WARNING: FCV 3 open but cannot deliver flow at 4:33:07 hrs.
  
  WARNING: FCV 74 open but cannot deliver flow at 4:33:25 hrs.
  WARNING: FCV 3 open but cannot deliver flow at 4:33:25 hrs.
  
  WARNING: FCV 76 open but cannot deliver flow at 4:33:29 hrs.
  WARNING: FCV 3 open but cannot deliver flow at 4:33:29 hrs.
  
  WARNING: FCV 76 open but cannot deliver flow at 4:33:30 hrs.
  WARNING: FCV 66 open but cannot deliver flow at 4:33:30 hrs.
  WARNING: FCV 65 open but cannot deliver flow at 4:33:30 hrs.
  WARNING: FCV 3 open but cannot deliver flow at 4:33:30 hrs.
  
  WARNING: FCV 74 open but cannot deliver flow at 4:33:31 hrs.
  WARNING: FCV 66 open but cannot deliver flow at 4:33:31 hrs.
  WARNING: FCV 65 open but cannot deliver flow at 4:33:31 hrs.
  WARNING: FCV 3 open but cannot deliver flow at 4:33:31 hrs.
  
  WARNING: FCV 76 open but cannot deliver flow at 4:33:34 hrs.
  WARNING: FCV 40 open but cannot deliver flow at 4:33:34 hrs.
  WARNING: FCV 3 open but cannot deliver flow at 4:33:34 hrs.
  
  WARNING: FCV 76 open but cannot deliver flow at 4:33:35 hrs.
  WARNING: FCV 74 open but cannot deliver flow at 4:33:35 hrs.
  WARNING: FCV 66 open but cannot deliver flow at 4:33:35 hrs.
  WARNING: FCV 65 open but cannot deliver flow at 4:33:35 hrs.
  WARNING: FCV 40 open but cannot deliver flow at 4:33:35 hrs.
  WARNING: FCV 3 open but cannot deliver flow at 4:33:35 hrs.
  
  WARNING: FCV 78 open but cannot deliver flow at 4:35:27 hrs.
  WARNING: FCV 3 open but cannot deliver flow at 4:35:27 hrs.
  
  WARNING: FCV 76 open but cannot deliver flow at 4:35:55 hrs.
  WARNING: FCV 3 open but cannot deliver flow at 4:35:55 hrs.
  
  WARNING: FCV 78 open but cannot deliver flow at 4:35:59 hrs.
  WARNING: FCV 66 open but cannot deliver flow at 4:35:59 hrs.
  
  WARNING: FCV 76 open but cannot deliver flow at 4:36:00 hrs.
  WARNING: FCV 66 open but cannot deliver flow at 4:36:00 hrs.
  WARNING: FCV 3 open but cannot deliver flow at 4:36:00 hrs.
  
  WARNING: FCV 78 open but cannot deliver flow at 4:36:02 hrs.
  WARNING: FCV 66 open but cannot deliver flow at 4:36:02 hrs.
  WARNING: FCV 65 open but cannot deliver flow at 4:36:02 hrs.
  
  WARNING: FCV 76 open but cannot deliver flow at 4:36:23 hrs.
  WARNING: FCV 74 open but cannot deliver flow at 4:36:23 hrs.
  WARNING: FCV 3 open but cannot deliver flow at 4:36:23 hrs.
  
  WARNING: FCV 40 open but cannot deliver flow at 4:36:25 hrs.
  WARNING: FCV 3 open but cannot deliver flow at 4:36:25 hrs.
  
  WARNING: FCV 76 open but cannot deliver flow at 4:36:26 hrs.
  WARNING: FCV 74 open but cannot deliver flow at 4:36:26 hrs.
  WARNING: FCV 40 open but cannot deliver flow at 4:36:26 hrs.
  WARNING: FCV 3 open but cannot deliver flow at 4:36:26 hrs.
  
  WARNING: FCV 78 open but cannot deliver flow at 4:36:27 hrs.
  WARNING: FCV 76 open but cannot deliver flow at 4:36:27 hrs.
  WARNING: FCV 74 open but cannot deliver flow at 4:36:27 hrs.
  WARNING: FCV 3 open but cannot deliver flow at 4:36:27 hrs.
  
  WARNING: FCV 78 open but cannot deliver flow at 4:36:28 hrs.
  WARNING: FCV 40 open but cannot deliver flow at 4:36:28 hrs.
  WARNING: FCV 3 open but cannot deliver flow at 4:36:28 hrs.
  
  WARNING: FCV 76 open but cannot deliver flow at 4:36:29 hrs.
  WARNING: FCV 74 open but cannot deliver flow at 4:36:29 hrs.
  WARNING: FCV 66 open but cannot deliver flow at 4:36:29 hrs.
  WARNING: FCV 65 open but cannot deliver flow at 4:36:29 hrs.
  WARNING: FCV 40 open but cannot deliver flow at 4:36:29 hrs.
  WARNING: FCV 3 open but cannot deliver flow at 4:36:29 hrs.
  
  WARNING: FCV 78 open but cannot deliver flow at 4:36:30 hrs.
  WARNING: FCV 76 open but cannot deliver flow at 4:36:30 hrs.
  WARNING: FCV 74 open but cannot deliver flow at 4:36:30 hrs.
  WARNING: FCV 66 open but cannot deliver flow at 4:36:30 hrs.
  WARNING: FCV 65 open but cannot deliver flow at 4:36:30 hrs.
  WARNING: FCV 3 open but cannot deliver flow at 4:36:30 hrs.
  
  WARNING: FCV 78 open but cannot deliver flow at 4:36:31 hrs.
  WARNING: FCV 66 open but cannot deliver flow at 4:36:31 hrs.
  WARNING: FCV 65 open but cannot deliver flow at 4:36:31 hrs.
  WARNING: FCV 40 open but cannot deliver flow at 4:36:31 hrs.
  WARNING: FCV 3 open but cannot deliver flow at 4:36:31 hrs.
  
  WARNING: FCV 76 open but cannot deliver flow at 4:36:32 hrs.
  WARNING: FCV 74 open but cannot deliver flow at 4:36:32 hrs.
  WARNING: FCV 66 open but cannot deliver flow at 4:36:32 hrs.
  WARNING: FCV 40 open but cannot deliver flow at 4:36:32 hrs.
  WARNING: FCV 3 open but cannot deliver flow at 4:36:32 hrs.
  
  WARNING: FCV 78 open but cannot deliver flow at 4:36:33 hrs.
  WARNING: FCV 76 open but cannot deliver flow at 4:36:33 hrs.
  WARNING: FCV 74 open but cannot deliver flow at 4:36:33 hrs.
  WARNING: FCV 65 open but cannot deliver flow at 4:36:33 hrs.
  WARNING: FCV 3 open but cannot deliver flow at 4:36:33 hrs.
  
  WARNING: FCV 78 open but cannot deliver flow at 4:36:34 hrs.
  WARNING: FCV 66 open but cannot deliver flow at 4:36:34 hrs.
  WARNING: FCV 65 open but cannot deliver flow at 4:36:34 hrs.
  WARNING: FCV 40 open but cannot deliver flow at 4:36:34 hrs.
  WARNING: FCV 3 open but cannot deliver flow at 4:36:34 hrs.
  
  WARNING: FCV 76 open but cannot deliver flow at 4:36:35 hrs.
  WARNING: FCV 74 open but cannot deliver flow at 4:36:35 hrs.
  WARNING: FCV 66 open but cannot deliver flow at 4:36:35 hrs.
  WARNING: FCV 65 open but cannot deliver flow at 4:36:35 hrs.
  WARNING: FCV 40 open but cannot deliver flow at 4:36:35 hrs.
  WARNING: FCV 3 open but cannot deliver flow at 4:36:35 hrs.
  
  WARNING: FCV 78 open but cannot deliver flow at 4:36:36 hrs.
  WARNING: FCV 76 open but cannot deliver flow at 4:36:36 hrs.
  WARNING: FCV 74 open but cannot deliver flow at 4:36:36 hrs.
  WARNING: FCV 66 open but cannot deliver flow at 4:36:36 hrs.
  WARNING: FCV 3 open but cannot deliver flow at 4:36:36 hrs.
  
  WARNING: FCV 78 open but cannot deliver flow at 4:36:37 hrs.
  WARNING: FCV 66 open but cannot deliver flow at 4:36:37 hrs.
  WARNING: FCV 65 open but cannot deliver flow at 4:36:37 hrs.
  WARNING: FCV 40 open but cannot deliver flow at 4:36:37 hrs.
  WARNING: FCV 3 open but cannot deliver flow at 4:36:37 hrs.
  
  WARNING: FCV 76 open but cannot deliver flow at 4:36:38 hrs.
  WARNING: FCV 74 open but cannot deliver flow at 4:36:38 hrs.
  WARNING: FCV 65 open but cannot deliver flow at 4:36:38 hrs.
  WARNING: FCV 40 open but cannot deliver flow at 4:36:38 hrs.
  WARNING: FCV 3 open but cannot deliver flow at 4:36:38 hrs.
  
  WARNING: FCV 78 open but cannot deliver flow at 4:36:39 hrs.
  WARNING: FCV 76 open but cannot deliver flow at 4:36:39 hrs.
  WARNING: FCV 74 open but cannot deliver flow at 4:36:39 hrs.
  WARNING: FCV 66 open but cannot deliver flow at 4:36:39 hrs.
  WARNING: FCV 65 open but cannot deliver flow at 4:36:39 hrs.
  WARNING: FCV 3 open but cannot deliver flow at 4:36:39 hrs.
  
  WARNING: FCV 78 open but cannot deliver flow at 4:36:40 hrs.
  WARNING: FCV 66 open but cannot deliver flow at 4:36:40 hrs.
  WARNING: FCV 40 open but cannot deliver flow at 4:36:40 hrs.
  WARNING: FCV 3 open but cannot deliver flow at 4:36:40 hrs.
  
  WARNING: FCV 76 open but cannot deliver flow at 4:36:41 hrs.
  WARNING: FCV 74 open but cannot deliver flow at 4:36:41 hrs.
  WARNING: FCV 66 open but cannot deliver flow at 4:36:41 hrs.
  WARNING: FCV 65 open but cannot deliver flow at 4:36:41 hrs.
  WARNING: FCV 40 open but cannot deliver flow at 4:36:41 hrs.
  WARNING: FCV 3 open but cannot deliver flow at 4:36:41 hrs.
  
  WARNING: FCV 78 open but cannot deliver flow at 4:36:42 hrs.
  WARNING: FCV 76 open but cannot deliver flow at 4:36:42 hrs.
  WARNING: FCV 74 open but cannot deliver flow at 4:36:42 hrs.
  WARNING: FCV 66 open but cannot deliver flow at 4:36:42 hrs.
  WARNING: FCV 65 open but cannot deliver flow at 4:36:42 hrs.
  WARNING: FCV 3 open but cannot deliver flow at 4:36:42 hrs.
  
  WARNING: FCV 78 open but cannot deliver flow at 4:36:43 hrs.
  WARNING: FCV 65 open but cannot deliver flow at 4:36:43 hrs.
  WARNING: FCV 40 open but cannot deliver flow at 4:36:43 hrs.
  WARNING: FCV 3 open but cannot deliver flow at 4:36:43 hrs.
  
  WARNING: FCV 76 open but cannot deliver flow at 4:36:44 hrs.
  WARNING: FCV 74 open but cannot deliver flow at 4:36:44 hrs.
  WARNING: FCV 66 open but cannot deliver flow at 4:36:44 hrs.
  WARNING: FCV 40 open but cannot deliver flow at 4:36:44 hrs.
  WARNING: FCV 3 open but cannot deliver flow at 4:36:44 hrs.
  
  WARNING: FCV 78 open but cannot deliver flow at 4:36:45 hrs.
  WARNING: FCV 76 open but cannot deliver flow at 4:36:45 hrs.
  WARNING: FCV 74 open but cannot deliver flow at 4:36:45 hrs.
  WARNING: FCV 66 open but cannot deliver flow at 4:36:45 hrs.
  WARNING: FCV 65 open but cannot deliver flow at 4:36:45 hrs.
  WARNING: FCV 3 open but cannot deliver flow at 4:36:45 hrs.
  
  WARNING: FCV 78 open but cannot deliver flow at 4:36:46 hrs.
  WARNING: FCV 66 open but cannot deliver flow at 4:36:46 hrs.
  WARNING: FCV 65 open but cannot deliver flow at 4:36:46 hrs.
  WARNING: FCV 40 open but cannot deliver flow at 4:36:46 hrs.
  WARNING: FCV 3 open but cannot deliver flow at 4:36:46 hrs.
  
  WARNING: FCV 76 open but cannot deliver flow at 4:36:47 hrs.
  WARNING: FCV 74 open but cannot deliver flow at 4:36:47 hrs.
  WARNING: FCV 66 open but cannot deliver flow at 4:36:47 hrs.
  WARNING: FCV 65 open but cannot deliver flow at 4:36:47 hrs.
  WARNING: FCV 40 open but cannot deliver flow at 4:36:47 hrs.
  WARNING: FCV 3 open but cannot deliver flow at 4:36:47 hrs.
  
  WARNING: FCV 78 open but cannot deliver flow at 4:36:48 hrs.
  WARNING: FCV 76 open but cannot deliver flow at 4:36:48 hrs.
  WARNING: FCV 74 open but cannot deliver flow at 4:36:48 hrs.
  WARNING: FCV 3 open but cannot deliver flow at 4:36:48 hrs.
  
  WARNING: FCV 78 open but cannot deliver flow at 4:36:49 hrs.
  WARNING: FCV 66 open but cannot deliver flow at 4:36:49 hrs.
  WARNING: FCV 65 open but cannot deliver flow at 4:36:49 hrs.
  WARNING: FCV 40 open but cannot deliver flow at 4:36:49 hrs.
  WARNING: FCV 3 open but cannot deliver flow at 4:36:49 hrs.
  
  WARNING: FCV 76 open but cannot deliver flow at 4:36:50 hrs.
  WARNING: FCV 74 open but cannot deliver flow at 4:36:50 hrs.
  WARNING: FCV 66 open but cannot deliver flow at 4:36:50 hrs.
  WARNING: FCV 65 open but cannot deliver flow at 4:36:50 hrs.
  WARNING: FCV 40 open but cannot deliver flow at 4:36:50 hrs.
  WARNING: FCV 3 open but cannot deliver flow at 4:36:50 hrs.
  
  WARNING: FCV 78 open but cannot deliver flow at 4:36:51 hrs.
  WARNING: FCV 76 open but cannot deliver flow at 4:36:51 hrs.
  WARNING: FCV 74 open but cannot deliver flow at 4:36:51 hrs.
  WARNING: FCV 66 open but cannot deliver flow at 4:36:51 hrs.
  WARNING: FCV 65 open but cannot deliver flow at 4:36:51 hrs.
  WARNING: FCV 3 open but cannot deliver flow at 4:36:51 hrs.
  
  WARNING: FCV 78 open but cannot deliver flow at 4:36:52 hrs.
  WARNING: FCV 66 open but cannot deliver flow at 4:36:52 hrs.
  WARNING: FCV 40 open but cannot deliver flow at 4:36:52 hrs.
  WARNING: FCV 3 open but cannot deliver flow at 4:36:52 hrs.
  
  WARNING: FCV 76 open but cannot deliver flow at 4:36:53 hrs.
  WARNING: FCV 74 open but cannot deliver flow at 4:36:53 hrs.
  WARNING: FCV 65 open but cannot deliver flow at 4:36:53 hrs.
  WARNING: FCV 40 open but cannot deliver flow at 4:36:53 hrs.
  WARNING: FCV 3 open but cannot deliver flow at 4:36:53 hrs.
  
  WARNING: FCV 78 open but cannot deliver flow at 4:36:54 hrs.
  WARNING: FCV 76 open but cannot deliver flow at 4:36:54 hrs.
  WARNING: FCV 74 open but cannot deliver flow at 4:36:54 hrs.
  WARNING: FCV 66 open but cannot deliver flow at 4:36:54 hrs.
  WARNING: FCV 65 open but cannot deliver flow at 4:36:54 hrs.
  WARNING: FCV 3 open but cannot deliver flow at 4:36:54 hrs.
  
  WARNING: FCV 78 open but cannot deliver flow at 4:36:55 hrs.
  WARNING: FCV 66 open but cannot deliver flow at 4:36:55 hrs.
  WARNING: FCV 65 open but cannot deliver flow at 4:36:55 hrs.
  WARNING: FCV 40 open but cannot deliver flow at 4:36:55 hrs.
  WARNING: FCV 3 open but cannot deliver flow at 4:36:55 hrs.
  
  WARNING: FCV 76 open but cannot deliver flow at 4:36:56 hrs.
  WARNING: FCV 74 open but cannot deliver flow at 4:36:56 hrs.
  WARNING: FCV 66 open but cannot deliver flow at 4:36:56 hrs.
  WARNING: FCV 40 open but cannot deliver flow at 4:36:56 hrs.
  WARNING: FCV 3 open but cannot deliver flow at 4:36:56 hrs.
  
  WARNING: FCV 78 open but cannot deliver flow at 4:36:57 hrs.
  WARNING: FCV 76 open but cannot deliver flow at 4:36:57 hrs.
  WARNING: FCV 74 open but cannot deliver flow at 4:36:57 hrs.
  WARNING: FCV 66 open but cannot deliver flow at 4:36:57 hrs.
  WARNING: FCV 65 open but cannot deliver flow at 4:36:57 hrs.
  WARNING: FCV 3 open but cannot deliver flow at 4:36:57 hrs.
  
  WARNING: FCV 78 open but cannot deliver flow at 4:36:58 hrs.
  WARNING: FCV 65 open but cannot deliver flow at 4:36:58 hrs.
  WARNING: FCV 40 open but cannot deliver flow at 4:36:58 hrs.
  WARNING: FCV 3 open but cannot deliver flow at 4:36:58 hrs.
  
  WARNING: FCV 76 open but cannot deliver flow at 4:36:59 hrs.
  WARNING: FCV 74 open but cannot deliver flow at 4:36:59 hrs.
  WARNING: FCV 66 open but cannot deliver flow at 4:36:59 hrs.
  WARNING: FCV 65 open but cannot deliver flow at 4:36:59 hrs.
  WARNING: FCV 40 open but cannot deliver flow at 4:36:59 hrs.
  WARNING: FCV 3 open but cannot deliver flow at 4:36:59 hrs.
  
  WARNING: FCV 78 open but cannot deliver flow at 4:37:00 hrs.
  WARNING: FCV 76 open but cannot deliver flow at 4:37:00 hrs.
  WARNING: FCV 74 open but cannot deliver flow at 4:37:00 hrs.
  WARNING: FCV 66 open but cannot deliver flow at 4:37:00 hrs.
  WARNING: FCV 3 open but cannot deliver flow at 4:37:00 hrs.
  
  WARNING: FCV 78 open but cannot deliver flow at 4:37:01 hrs.
  WARNING: FCV 66 open but cannot deliver flow at 4:37:01 hrs.
  WARNING: FCV 65 open but cannot deliver flow at 4:37:01 hrs.
  WARNING: FCV 40 open but cannot deliver flow at 4:37:01 hrs.
  WARNING: FCV 3 open but cannot deliver flow at 4:37:01 hrs.
  
  WARNING: FCV 76 open but cannot deliver flow at 4:37:02 hrs.
  WARNING: FCV 74 open but cannot deliver flow at 4:37:02 hrs.
  WARNING: FCV 66 open but cannot deliver flow at 4:37:02 hrs.
  WARNING: FCV 65 open but cannot deliver flow at 4:37:02 hrs.
  WARNING: FCV 40 open but cannot deliver flow at 4:37:02 hrs.
  WARNING: FCV 3 open but cannot deliver flow at 4:37:02 hrs.
  
  WARNING: FCV 78 open but cannot deliver flow at 4:37:03 hrs.
  WARNING: FCV 76 open but cannot deliver flow at 4:37:03 hrs.
  WARNING: FCV 74 open but cannot deliver flow at 4:37:03 hrs.
  WARNING: FCV 65 open but cannot deliver flow at 4:37:03 hrs.
  WARNING: FCV 3 open but cannot deliver flow at 4:37:03 hrs.
  
  WARNING: FCV 78 open but cannot deliver flow at 4:37:04 hrs.
  WARNING: FCV 66 open but cannot deliver flow at 4:37:04 hrs.
  WARNING: FCV 40 open but cannot deliver flow at 4:37:04 hrs.
  WARNING: FCV 3 open but cannot deliver flow at 4:37:04 hrs.
  
  WARNING: FCV 76 open but cannot deliver flow at 4:37:05 hrs.
  WARNING: FCV 74 open but cannot deliver flow at 4:37:05 hrs.
  WARNING: FCV 66 open but cannot deliver flow at 4:37:05 hrs.
  WARNING: FCV 65 open but cannot deliver flow at 4:37:05 hrs.
  WARNING: FCV 40 open but cannot deliver flow at 4:37:05 hrs.
  WARNING: FCV 3 open but cannot deliver flow at 4:37:05 hrs.
  
  WARNING: FCV 78 open but cannot deliver flow at 4:37:06 hrs.
  WARNING: FCV 76 open but cannot deliver flow at 4:37:06 hrs.
  WARNING: FCV 74 open but cannot deliver flow at 4:37:06 hrs.
  WARNING: FCV 66 open but cannot deliver flow at 4:37:06 hrs.
  WARNING: FCV 65 open but cannot deliver flow at 4:37:06 hrs.
  WARNING: FCV 3 open but cannot deliver flow at 4:37:06 hrs.
  
  WARNING: FCV 78 open but cannot deliver flow at 4:37:07 hrs.
  WARNING: FCV 66 open but cannot deliver flow at 4:37:07 hrs.
  WARNING: FCV 65 open but cannot deliver flow at 4:37:07 hrs.
  WARNING: FCV 40 open but cannot deliver flow at 4:37:07 hrs.
  WARNING: FCV 3 open but cannot deliver flow at 4:37:07 hrs.
  
  WARNING: FCV 76 open but cannot deliver flow at 4:37:08 hrs.
  WARNING: FCV 74 open but cannot deliver flow at 4:37:08 hrs.
  WARNING: FCV 40 open but cannot deliver flow at 4:37:08 hrs.
  WARNING: FCV 3 open but cannot deliver flow at 4:37:08 hrs.
  
  WARNING: FCV 78 open but cannot deliver flow at 4:37:09 hrs.
  WARNING: FCV 76 open but cannot deliver flow at 4:37:09 hrs.
  WARNING: FCV 74 open but cannot deliver flow at 4:37:09 hrs.
  WARNING: FCV 66 open but cannot deliver flow at 4:37:09 hrs.
  WARNING: FCV 65 open but cannot deliver flow at 4:37:09 hrs.
  WARNING: FCV 3 open but cannot deliver flow at 4:37:09 hrs.
  
  WARNING: FCV 78 open but cannot deliver flow at 4:37:10 hrs.
  WARNING: FCV 66 open but cannot deliver flow at 4:37:10 hrs.
  WARNING: FCV 65 open but cannot deliver flow at 4:37:10 hrs.
  WARNING: FCV 40 open but cannot deliver flow at 4:37:10 hrs.
  WARNING: FCV 3 open but cannot deliver flow at 4:37:10 hrs.
  
  WARNING: FCV 76 open but cannot deliver flow at 4:37:11 hrs.
  WARNING: FCV 74 open but cannot deliver flow at 4:37:11 hrs.
  WARNING: FCV 66 open but cannot deliver flow at 4:37:11 hrs.
  WARNING: FCV 65 open but cannot deliver flow at 4:37:11 hrs.
  WARNING: FCV 40 open but cannot deliver flow at 4:37:11 hrs.
  WARNING: FCV 3 open but cannot deliver flow at 4:37:11 hrs.
  
  WARNING: FCV 78 open but cannot deliver flow at 4:37:12 hrs.
  WARNING: FCV 76 open but cannot deliver flow at 4:37:12 hrs.
  WARNING: FCV 74 open but cannot deliver flow at 4:37:12 hrs.
  WARNING: FCV 66 open but cannot deliver flow at 4:37:12 hrs.
  WARNING: FCV 3 open but cannot deliver flow at 4:37:12 hrs.
  
  WARNING: FCV 78 open but cannot deliver flow at 4:37:13 hrs.
  WARNING: FCV 65 open but cannot deliver flow at 4:37:13 hrs.
  WARNING: FCV 40 open but cannot deliver flow at 4:37:13 hrs.
  WARNING: FCV 3 open but cannot deliver flow at 4:37:13 hrs.
  
  WARNING: FCV 76 open but cannot deliver flow at 4:37:14 hrs.
  WARNING: FCV 74 open but cannot deliver flow at 4:37:14 hrs.
  WARNING: FCV 66 open but cannot deliver flow at 4:37:14 hrs.
  WARNING: FCV 65 open but cannot deliver flow at 4:37:14 hrs.
  WARNING: FCV 40 open but cannot deliver flow at 4:37:14 hrs.
  WARNING: FCV 3 open but cannot deliver flow at 4:37:14 hrs.
  
  WARNING: FCV 78 open but cannot deliver flow at 4:37:15 hrs.
  WARNING: FCV 76 open but cannot deliver flow at 4:37:15 hrs.
  WARNING: FCV 74 open but cannot deliver flow at 4:37:15 hrs.
  WARNING: FCV 66 open but cannot deliver flow at 4:37:15 hrs.
  WARNING: FCV 65 open but cannot deliver flow at 4:37:15 hrs.
  WARNING: FCV 3 open but cannot deliver flow at 4:37:15 hrs.
  
  WARNING: FCV 78 open but cannot deliver flow at 4:37:16 hrs.
  WARNING: FCV 66 open but cannot deliver flow at 4:37:16 hrs.
  WARNING: FCV 40 open but cannot deliver flow at 4:37:16 hrs.
  WARNING: FCV 3 open but cannot deliver flow at 4:37:16 hrs.
  
  WARNING: FCV 76 open but cannot deliver flow at 4:37:17 hrs.
  WARNING: FCV 74 open but cannot deliver flow at 4:37:17 hrs.
  WARNING: FCV 66 open but cannot deliver flow at 4:37:17 hrs.
  WARNING: FCV 65 open but cannot deliver flow at 4:37:17 hrs.
  WARNING: FCV 40 open but cannot deliver flow at 4:37:17 hrs.
  WARNING: FCV 3 open but cannot deliver flow at 4:37:17 hrs.
  
  WARNING: FCV 78 open but cannot deliver flow at 4:37:18 hrs.
  WARNING: FCV 76 open but cannot deliver flow at 4:37:18 hrs.
  WARNING: FCV 74 open but cannot deliver flow at 4:37:18 hrs.
  WARNING: FCV 65 open but cannot deliver flow at 4:37:18 hrs.
  WARNING: FCV 3 open but cannot deliver flow at 4:37:18 hrs.
  
  WARNING: FCV 78 open but cannot deliver flow at 4:37:19 hrs.
  WARNING: FCV 66 open but cannot deliver flow at 4:37:19 hrs.
  WARNING: FCV 65 open but cannot deliver flow at 4:37:19 hrs.
  WARNING: FCV 40 open but cannot deliver flow at 4:37:19 hrs.
  WARNING: FCV 3 open but cannot deliver flow at 4:37:19 hrs.
  
  WARNING: FCV 76 open but cannot deliver flow at 4:37:20 hrs.
  WARNING: FCV 74 open but cannot deliver flow at 4:37:20 hrs.
  WARNING: FCV 66 open but cannot deliver flow at 4:37:20 hrs.
  WARNING: FCV 40 open but cannot deliver flow at 4:37:20 hrs.
  WARNING: FCV 3 open but cannot deliver flow at 4:37:20 hrs.
  
  WARNING: FCV 78 open but cannot deliver flow at 4:37:21 hrs.
  WARNING: FCV 76 open but cannot deliver flow at 4:37:21 hrs.
  WARNING: FCV 74 open but cannot deliver flow at 4:37:21 hrs.
  WARNING: FCV 66 open but cannot deliver flow at 4:37:21 hrs.
  WARNING: FCV 65 open but cannot deliver flow at 4:37:21 hrs.
  WARNING: FCV 3 open but cannot deliver flow at 4:37:21 hrs.
  
  WARNING: FCV 78 open but cannot deliver flow at 4:37:22 hrs.
  WARNING: FCV 66 open but cannot deliver flow at 4:37:22 hrs.
  WARNING: FCV 65 open but cannot deliver flow at 4:37:22 hrs.
  WARNING: FCV 40 open but cannot deliver flow at 4:37:22 hrs.
  WARNING: FCV 3 open but cannot deliver flow at 4:37:22 hrs.
  
  WARNING: FCV 76 open but cannot deliver flow at 4:37:23 hrs.
  WARNING: FCV 74 open but cannot deliver flow at 4:37:23 hrs.
  WARNING: FCV 65 open but cannot deliver flow at 4:37:23 hrs.
  WARNING: FCV 40 open but cannot deliver flow at 4:37:23 hrs.
  WARNING: FCV 3 open but cannot deliver flow at 4:37:23 hrs.
  
  WARNING: FCV 78 open but cannot deliver flow at 4:37:24 hrs.
  WARNING: FCV 76 open but cannot deliver flow at 4:37:24 hrs.
  WARNING: FCV 74 open but cannot deliver flow at 4:37:24 hrs.
  WARNING: FCV 66 open but cannot deliver flow at 4:37:24 hrs.
  WARNING: FCV 3 open but cannot deliver flow at 4:37:24 hrs.
  
  WARNING: FCV 78 open but cannot deliver flow at 4:37:25 hrs.
  WARNING: FCV 66 open but cannot deliver flow at 4:37:25 hrs.
  WARNING: FCV 65 open but cannot deliver flow at 4:37:25 hrs.
  WARNING: FCV 40 open but cannot deliver flow at 4:37:25 hrs.
  WARNING: FCV 3 open but cannot deliver flow at 4:37:25 hrs.
  
  WARNING: FCV 76 open but cannot deliver flow at 4:37:26 hrs.
  WARNING: FCV 74 open but cannot deliver flow at 4:37:26 hrs.
  WARNING: FCV 66 open but cannot deliver flow at 4:37:26 hrs.
  WARNING: FCV 65 open but cannot deliver flow at 4:37:26 hrs.
  WARNING: FCV 40 open but cannot deliver flow at 4:37:26 hrs.
  WARNING: FCV 3 open but cannot deliver flow at 4:37:26 hrs.
  
  WARNING: FCV 78 open but cannot deliver flow at 4:37:27 hrs.
  WARNING: FCV 76 open but cannot deliver flow at 4:37:27 hrs.
  WARNING: FCV 74 open but cannot deliver flow at 4:37:27 hrs.
  WARNING: FCV 66 open but cannot deliver flow at 4:37:27 hrs.
  WARNING: FCV 65 open but cannot deliver flow at 4:37:27 hrs.
  WARNING: FCV 3 open but cannot deliver flow at 4:37:27 hrs.
  
  WARNING: FCV 78 open but cannot deliver flow at 4:37:28 hrs.
  WARNING: FCV 40 open but cannot deliver flow at 4:37:28 hrs.
  WARNING: FCV 3 open but cannot deliver flow at 4:37:28 hrs.
  
  WARNING: FCV 76 open but cannot deliver flow at 4:37:29 hrs.
  WARNING: FCV 74 open but cannot deliver flow at 4:37:29 hrs.
  WARNING: FCV 66 open but cannot deliver flow at 4:37:29 hrs.
  WARNING: FCV 65 open but cannot deliver flow at 4:37:29 hrs.
  WARNING: FCV 40 open but cannot deliver flow at 4:37:29 hrs.
  WARNING: FCV 3 open but cannot deliver flow at 4:37:29 hrs.
  
  WARNING: FCV 78 open but cannot deliver flow at 4:37:30 hrs.
  WARNING: FCV 76 open but cannot deliver flow at 4:37:30 hrs.
  WARNING: FCV 74 open but cannot deliver flow at 4:37:30 hrs.
  WARNING: FCV 66 open but cannot deliver flow at 4:37:30 hrs.
  WARNING: FCV 65 open but cannot deliver flow at 4:37:30 hrs.
  WARNING: FCV 3 open but cannot deliver flow at 4:37:30 hrs.
  
  WARNING: FCV 78 open but cannot deliver flow at 4:37:31 hrs.
  WARNING: FCV 66 open but cannot deliver flow at 4:37:31 hrs.
  WARNING: FCV 65 open but cannot deliver flow at 4:37:31 hrs.
  WARNING: FCV 40 open but cannot deliver flow at 4:37:31 hrs.
  WARNING: FCV 3 open but cannot deliver flow at 4:37:31 hrs.
  
  WARNING: FCV 76 open but cannot deliver flow at 4:37:32 hrs.
  WARNING: FCV 74 open but cannot deliver flow at 4:37:32 hrs.
  WARNING: FCV 66 open but cannot deliver flow at 4:37:32 hrs.
  WARNING: FCV 40 open but cannot deliver flow at 4:37:32 hrs.
  WARNING: FCV 3 open but cannot deliver flow at 4:37:32 hrs.
  
  WARNING: FCV 78 open but cannot deliver flow at 4:37:33 hrs.
  WARNING: FCV 76 open but cannot deliver flow at 4:37:33 hrs.
  WARNING: FCV 74 open but cannot deliver flow at 4:37:33 hrs.
  WARNING: FCV 65 open but cannot deliver flow at 4:37:33 hrs.
  WARNING: FCV 3 open but cannot deliver flow at 4:37:33 hrs.
  
  WARNING: FCV 78 open but cannot deliver flow at 4:37:34 hrs.
  WARNING: FCV 66 open but cannot deliver flow at 4:37:34 hrs.
  WARNING: FCV 65 open but cannot deliver flow at 4:37:34 hrs.
  WARNING: FCV 40 open but cannot deliver flow at 4:37:34 hrs.
  WARNING: FCV 3 open but cannot deliver flow at 4:37:34 hrs.
  
  WARNING: FCV 76 open but cannot deliver flow at 4:37:35 hrs.
  WARNING: FCV 74 open but cannot deliver flow at 4:37:35 hrs.
  WARNING: FCV 66 open but cannot deliver flow at 4:37:35 hrs.
  WARNING: FCV 65 open but cannot deliver flow at 4:37:35 hrs.
  WARNING: FCV 40 open but cannot deliver flow at 4:37:35 hrs.
  WARNING: FCV 3 open but cannot deliver flow at 4:37:35 hrs.
  
  WARNING: FCV 78 open but cannot deliver flow at 4:37:36 hrs.
  WARNING: FCV 76 open but cannot deliver flow at 4:37:36 hrs.
  WARNING: FCV 74 open but cannot deliver flow at 4:37:36 hrs.
  WARNING: FCV 66 open but cannot deliver flow at 4:37:36 hrs.
  WARNING: FCV 3 open but cannot deliver flow at 4:37:36 hrs.
  
  WARNING: FCV 78 open but cannot deliver flow at 4:37:37 hrs.
  WARNING: FCV 66 open but cannot deliver flow at 4:37:37 hrs.
  WARNING: FCV 65 open but cannot deliver flow at 4:37:37 hrs.
  WARNING: FCV 40 open but cannot deliver flow at 4:37:37 hrs.
  WARNING: FCV 3 open but cannot deliver flow at 4:37:37 hrs.
  
  WARNING: FCV 76 open but cannot deliver flow at 4:37:38 hrs.
  WARNING: FCV 74 open but cannot deliver flow at 4:37:38 hrs.
  WARNING: FCV 65 open but cannot deliver flow at 4:37:38 hrs.
  WARNING: FCV 40 open but cannot deliver flow at 4:37:38 hrs.
  WARNING: FCV 3 open but cannot deliver flow at 4:37:38 hrs.
  
  WARNING: FCV 78 open but cannot deliver flow at 4:37:39 hrs.
  WARNING: FCV 76 open but cannot deliver flow at 4:37:39 hrs.
  WARNING: FCV 74 open but cannot deliver flow at 4:37:39 hrs.
  WARNING: FCV 66 open but cannot deliver flow at 4:37:39 hrs.
  WARNING: FCV 65 open but cannot deliver flow at 4:37:39 hrs.
  WARNING: FCV 3 open but cannot deliver flow at 4:37:39 hrs.
  
  WARNING: FCV 78 open but cannot deliver flow at 4:37:40 hrs.
  WARNING: FCV 66 open but cannot deliver flow at 4:37:40 hrs.
  WARNING: FCV 40 open but cannot deliver flow at 4:37:40 hrs.
  WARNING: FCV 3 open but cannot deliver flow at 4:37:40 hrs.
  
  WARNING: FCV 76 open but cannot deliver flow at 4:37:41 hrs.
  WARNING: FCV 74 open but cannot deliver flow at 4:37:41 hrs.
  WARNING: FCV 66 open but cannot deliver flow at 4:37:41 hrs.
  WARNING: FCV 65 open but cannot deliver flow at 4:37:41 hrs.
  WARNING: FCV 40 open but cannot deliver flow at 4:37:41 hrs.
  WARNING: FCV 3 open but cannot deliver flow at 4:37:41 hrs.
  
  WARNING: FCV 78 open but cannot deliver flow at 4:37:42 hrs.
  WARNING: FCV 76 open but cannot deliver flow at 4:37:42 hrs.
  WARNING: FCV 74 open but cannot deliver flow at 4:37:42 hrs.
  WARNING: FCV 66 open but cannot deliver flow at 4:37:42 hrs.
  WARNING: FCV 65 open but cannot deliver flow at 4:37:42 hrs.
  WARNING: FCV 3 open but cannot deliver flow at 4:37:42 hrs.
  
  WARNING: FCV 78 open but cannot deliver flow at 4:37:43 hrs.
  WARNING: FCV 65 open but cannot deliver flow at 4:37:43 hrs.
  WARNING: FCV 40 open but cannot deliver flow at 4:37:43 hrs.
  WARNING: FCV 3 open but cannot deliver flow at 4:37:43 hrs.
  
  WARNING: FCV 76 open but cannot deliver flow at 4:37:44 hrs.
  WARNING: FCV 74 open but cannot deliver flow at 4:37:44 hrs.
  WARNING: FCV 66 open but cannot deliver flow at 4:37:44 hrs.
  WARNING: FCV 40 open but cannot deliver flow at 4:37:44 hrs.
  WARNING: FCV 3 open but cannot deliver flow at 4:37:44 hrs.
  
  WARNING: FCV 78 open but cannot deliver flow at 4:37:45 hrs.
  WARNING: FCV 76 open but cannot deliver flow at 4:37:45 hrs.
  WARNING: FCV 74 open but cannot deliver flow at 4:37:45 hrs.
  WARNING: FCV 66 open but cannot deliver flow at 4:37:45 hrs.
  WARNING: FCV 65 open but cannot deliver flow at 4:37:45 hrs.
  WARNING: FCV 3 open but cannot deliver flow at 4:37:45 hrs.
  
  WARNING: FCV 78 open but cannot deliver flow at 4:37:46 hrs.
  WARNING: FCV 66 open but cannot deliver flow at 4:37:46 hrs.
  WARNING: FCV 65 open but cannot deliver flow at 4:37:46 hrs.
  WARNING: FCV 40 open but cannot deliver flow at 4:37:46 hrs.
  WARNING: FCV 3 open but cannot deliver flow at 4:37:46 hrs.
  
  WARNING: FCV 76 open but cannot deliver flow at 4:37:47 hrs.
  WARNING: FCV 74 open but cannot deliver flow at 4:37:47 hrs.
  WARNING: FCV 66 open but cannot deliver flow at 4:37:47 hrs.
  WARNING: FCV 65 open but cannot deliver flow at 4:37:47 hrs.
  WARNING: FCV 40 open but cannot deliver flow at 4:37:47 hrs.
  WARNING: FCV 3 open but cannot deliver flow at 4:37:47 hrs.
  
  WARNING: FCV 78 open but cannot deliver flow at 4:37:48 hrs.
  WARNING: FCV 76 open but cannot deliver flow at 4:37:48 hrs.
  WARNING: FCV 74 open but cannot deliver flow at 4:37:48 hrs.
  WARNING: FCV 3 open but cannot deliver flow at 4:37:48 hrs.
  
  WARNING: FCV 78 open but cannot deliver flow at 4:37:49 hrs.
  WARNING: FCV 66 open but cannot deliver flow at 4:37:49 hrs.
  WARNING: FCV 65 open but cannot deliver flow at 4:37:49 hrs.
  WARNING: FCV 40 open but cannot deliver flow at 4:37:49 hrs.
  WARNING: FCV 3 open but cannot deliver flow at 4:37:49 hrs.
  
  WARNING: FCV 76 open but cannot deliver flow at 4:37:50 hrs.
  WARNING: FCV 74 open but cannot deliver flow at 4:37:50 hrs.
  WARNING: FCV 66 open but cannot deliver flow at 4:37:50 hrs.
  WARNING: FCV 65 open but cannot deliver flow at 4:37:50 hrs.
  WARNING: FCV 40 open but cannot deliver flow at 4:37:50 hrs.
  WARNING: FCV 3 open but cannot deliver flow at 4:37:50 hrs.
  
  WARNING: FCV 78 open but cannot deliver flow at 4:37:51 hrs.
  WARNING: FCV 76 open but cannot deliver flow at 4:37:51 hrs.
  WARNING: FCV 74 open but cannot deliver flow at 4:37:51 hrs.
  WARNING: FCV 66 open but cannot deliver flow at 4:37:51 hrs.
  WARNING: FCV 65 open but cannot deliver flow at 4:37:51 hrs.
  WARNING: FCV 3 open but cannot deliver flow at 4:37:51 hrs.
  
  WARNING: FCV 78 open but cannot deliver flow at 4:37:52 hrs.
  WARNING: FCV 66 open but cannot deliver flow at 4:37:52 hrs.
  WARNING: FCV 40 open but cannot deliver flow at 4:37:52 hrs.
  WARNING: FCV 3 open but cannot deliver flow at 4:37:52 hrs.
  
  WARNING: FCV 76 open but cannot deliver flow at 4:37:53 hrs.
  WARNING: FCV 74 open but cannot deliver flow at 4:37:53 hrs.
  WARNING: FCV 65 open but cannot deliver flow at 4:37:53 hrs.
  WARNING: FCV 40 open but cannot deliver flow at 4:37:53 hrs.
  WARNING: FCV 3 open but cannot deliver flow at 4:37:53 hrs.
  
  WARNING: FCV 78 open but cannot deliver flow at 4:37:54 hrs.
  WARNING: FCV 76 open but cannot deliver flow at 4:37:54 hrs.
  WARNING: FCV 74 open but cannot deliver flow at 4:37:54 hrs.
  WARNING: FCV 66 open but cannot deliver flow at 4:37:54 hrs.
  WARNING: FCV 65 open but cannot deliver flow at 4:37:54 hrs.
  WARNING: FCV 3 open but cannot deliver flow at 4:37:54 hrs.
  
  WARNING: FCV 78 open but cannot deliver flow at 4:37:55 hrs.
  WARNING: FCV 66 open but cannot deliver flow at 4:37:55 hrs.
  WARNING: FCV 65 open but cannot deliver flow at 4:37:55 hrs.
  WARNING: FCV 40 open but cannot deliver flow at 4:37:55 hrs.
  WARNING: FCV 3 open but cannot deliver flow at 4:37:55 hrs.
  
  WARNING: FCV 76 open but cannot deliver flow at 4:37:56 hrs.
  WARNING: FCV 74 open but cannot deliver flow at 4:37:56 hrs.
  WARNING: FCV 66 open but cannot deliver flow at 4:37:56 hrs.
  WARNING: FCV 40 open but cannot deliver flow at 4:37:56 hrs.
  WARNING: FCV 3 open but cannot deliver flow at 4:37:56 hrs.
  
  WARNING: FCV 78 open but cannot deliver flow at 4:37:57 hrs.
  WARNING: FCV 76 open but cannot deliver flow at 4:37:57 hrs.
  WARNING: FCV 74 open but cannot deliver flow at 4:37:57 hrs.
  WARNING: FCV 66 open but cannot deliver flow at 4:37:57 hrs.
  WARNING: FCV 65 open but cannot deliver flow at 4:37:57 hrs.
  WARNING: FCV 3 open but cannot deliver flow at 4:37:57 hrs.
  
  WARNING: FCV 78 open but cannot deliver flow at 4:37:58 hrs.
  WARNING: FCV 65 open but cannot deliver flow at 4:37:58 hrs.
  WARNING: FCV 40 open but cannot deliver flow at 4:37:58 hrs.
  WARNING: FCV 3 open but cannot deliver flow at 4:37:58 hrs.
  
  WARNING: FCV 76 open but cannot deliver flow at 4:37:59 hrs.
  WARNING: FCV 74 open but cannot deliver flow at 4:37:59 hrs.
  WARNING: FCV 66 open but cannot deliver flow at 4:37:59 hrs.
  WARNING: FCV 65 open but cannot deliver flow at 4:37:59 hrs.
  WARNING: FCV 40 open but cannot deliver flow at 4:37:59 hrs.
  WARNING: FCV 3 open but cannot deliver flow at 4:37:59 hrs.
  
  WARNING: FCV 78 open but cannot deliver flow at 4:38:00 hrs.
  WARNING: FCV 76 open but cannot deliver flow at 4:38:00 hrs.
  WARNING: FCV 74 open but cannot deliver flow at 4:38:00 hrs.
  WARNING: FCV 66 open but cannot deliver flow at 4:38:00 hrs.
  WARNING: FCV 3 open but cannot deliver flow at 4:38:00 hrs.
  
  WARNING: FCV 78 open but cannot deliver flow at 4:38:01 hrs.
  WARNING: FCV 66 open but cannot deliver flow at 4:38:01 hrs.
  WARNING: FCV 65 open but cannot deliver flow at 4:38:01 hrs.
  WARNING: FCV 40 open but cannot deliver flow at 4:38:01 hrs.
  WARNING: FCV 3 open but cannot deliver flow at 4:38:01 hrs.
  
  WARNING: FCV 76 open but cannot deliver flow at 4:38:02 hrs.
  WARNING: FCV 74 open but cannot deliver flow at 4:38:02 hrs.
  WARNING: FCV 66 open but cannot deliver flow at 4:38:02 hrs.
  WARNING: FCV 65 open but cannot deliver flow at 4:38:02 hrs.
  WARNING: FCV 40 open but cannot deliver flow at 4:38:02 hrs.
  WARNING: FCV 3 open but cannot deliver flow at 4:38:02 hrs.
  
  WARNING: FCV 78 open but cannot deliver flow at 4:38:03 hrs.
  WARNING: FCV 76 open but cannot deliver flow at 4:38:03 hrs.
  WARNING: FCV 74 open but cannot deliver flow at 4:38:03 hrs.
  WARNING: FCV 65 open but cannot deliver flow at 4:38:03 hrs.
  WARNING: FCV 3 open but cannot deliver flow at 4:38:03 hrs.
  
  WARNING: FCV 78 open but cannot deliver flow at 4:38:04 hrs.
  WARNING: FCV 66 open but cannot deliver flow at 4:38:04 hrs.
  WARNING: FCV 40 open but cannot deliver flow at 4:38:04 hrs.
  WARNING: FCV 3 open but cannot deliver flow at 4:38:04 hrs.
  
  WARNING: FCV 76 open but cannot deliver flow at 4:38:05 hrs.
  WARNING: FCV 74 open but cannot deliver flow at 4:38:05 hrs.
  WARNING: FCV 66 open but cannot deliver flow at 4:38:05 hrs.
  WARNING: FCV 65 open but cannot deliver flow at 4:38:05 hrs.
  WARNING: FCV 40 open but cannot deliver flow at 4:38:05 hrs.
  WARNING: FCV 3 open but cannot deliver flow at 4:38:05 hrs.
  
  WARNING: FCV 78 open but cannot deliver flow at 4:38:06 hrs.
  WARNING: FCV 76 open but cannot deliver flow at 4:38:06 hrs.
  WARNING: FCV 74 open but cannot deliver flow at 4:38:06 hrs.
  WARNING: FCV 66 open but cannot deliver flow at 4:38:06 hrs.
  WARNING: FCV 65 open but cannot deliver flow at 4:38:06 hrs.
  WARNING: FCV 3 open but cannot deliver flow at 4:38:06 hrs.
  
  WARNING: FCV 78 open but cannot deliver flow at 4:38:07 hrs.
  WARNING: FCV 66 open but cannot deliver flow at 4:38:07 hrs.
  WARNING: FCV 65 open but cannot deliver flow at 4:38:07 hrs.
  WARNING: FCV 40 open but cannot deliver flow at 4:38:07 hrs.
  WARNING: FCV 3 open but cannot deliver flow at 4:38:07 hrs.
  
  WARNING: FCV 76 open but cannot deliver flow at 4:38:08 hrs.
  WARNING: FCV 74 open but cannot deliver flow at 4:38:08 hrs.
  WARNING: FCV 40 open but cannot deliver flow at 4:38:08 hrs.
  WARNING: FCV 3 open but cannot deliver flow at 4:38:08 hrs.
  
  WARNING: FCV 78 open but cannot deliver flow at 4:38:09 hrs.
  WARNING: FCV 76 open but cannot deliver flow at 4:38:09 hrs.
  WARNING: FCV 74 open but cannot deliver flow at 4:38:09 hrs.
  WARNING: FCV 66 open but cannot deliver flow at 4:38:09 hrs.
  WARNING: FCV 65 open but cannot deliver flow at 4:38:09 hrs.
  WARNING: FCV 3 open but cannot deliver flow at 4:38:09 hrs.
  
  WARNING: FCV 78 open but cannot deliver flow at 4:38:10 hrs.
  WARNING: FCV 66 open but cannot deliver flow at 4:38:10 hrs.
  WARNING: FCV 65 open but cannot deliver flow at 4:38:10 hrs.
  WARNING: FCV 40 open but cannot deliver flow at 4:38:10 hrs.
  WARNING: FCV 3 open but cannot deliver flow at 4:38:10 hrs.
  
  WARNING: FCV 76 open but cannot deliver flow at 4:38:11 hrs.
  WARNING: FCV 74 open but cannot deliver flow at 4:38:11 hrs.
  WARNING: FCV 66 open but cannot deliver flow at 4:38:11 hrs.
  WARNING: FCV 65 open but cannot deliver flow at 4:38:11 hrs.
  WARNING: FCV 40 open but cannot deliver flow at 4:38:11 hrs.
  WARNING: FCV 3 open but cannot deliver flow at 4:38:11 hrs.
  
  WARNING: FCV 78 open but cannot deliver flow at 4:38:12 hrs.
  WARNING: FCV 76 open but cannot deliver flow at 4:38:12 hrs.
  WARNING: FCV 74 open but cannot deliver flow at 4:38:12 hrs.
  WARNING: FCV 66 open but cannot deliver flow at 4:38:12 hrs.
  WARNING: FCV 3 open but cannot deliver flow at 4:38:12 hrs.
  
  WARNING: FCV 78 open but cannot deliver flow at 4:38:13 hrs.
  WARNING: FCV 65 open but cannot deliver flow at 4:38:13 hrs.
  WARNING: FCV 40 open but cannot deliver flow at 4:38:13 hrs.
  WARNING: FCV 3 open but cannot deliver flow at 4:38:13 hrs.
  
  WARNING: FCV 76 open but cannot deliver flow at 4:38:14 hrs.
  WARNING: FCV 74 open but cannot deliver flow at 4:38:14 hrs.
  WARNING: FCV 66 open but cannot deliver flow at 4:38:14 hrs.
  WARNING: FCV 65 open but cannot deliver flow at 4:38:14 hrs.
  WARNING: FCV 40 open but cannot deliver flow at 4:38:14 hrs.
  WARNING: FCV 3 open but cannot deliver flow at 4:38:14 hrs.
  
  WARNING: FCV 78 open but cannot deliver flow at 4:38:15 hrs.
  WARNING: FCV 76 open but cannot deliver flow at 4:38:15 hrs.
  WARNING: FCV 74 open but cannot deliver flow at 4:38:15 hrs.
  WARNING: FCV 66 open but cannot deliver flow at 4:38:15 hrs.
  WARNING: FCV 65 open but cannot deliver flow at 4:38:15 hrs.
  WARNING: FCV 3 open but cannot deliver flow at 4:38:15 hrs.
  
  WARNING: FCV 78 open but cannot deliver flow at 4:38:16 hrs.
  WARNING: FCV 66 open but cannot deliver flow at 4:38:16 hrs.
  WARNING: FCV 40 open but cannot deliver flow at 4:38:16 hrs.
  WARNING: FCV 3 open but cannot deliver flow at 4:38:16 hrs.
  
  WARNING: FCV 76 open but cannot deliver flow at 4:38:17 hrs.
  WARNING: FCV 74 open but cannot deliver flow at 4:38:17 hrs.
  WARNING: FCV 66 open but cannot deliver flow at 4:38:17 hrs.
  WARNING: FCV 65 open but cannot deliver flow at 4:38:17 hrs.
  WARNING: FCV 40 open but cannot deliver flow at 4:38:17 hrs.
  WARNING: FCV 3 open but cannot deliver flow at 4:38:17 hrs.
  
  WARNING: FCV 78 open but cannot deliver flow at 4:38:18 hrs.
  WARNING: FCV 76 open but cannot deliver flow at 4:38:18 hrs.
  WARNING: FCV 74 open but cannot deliver flow at 4:38:18 hrs.
  WARNING: FCV 65 open but cannot deliver flow at 4:38:18 hrs.
  WARNING: FCV 3 open but cannot deliver flow at 4:38:18 hrs.
  
  WARNING: FCV 78 open but cannot deliver flow at 4:38:19 hrs.
  WARNING: FCV 66 open but cannot deliver flow at 4:38:19 hrs.
  WARNING: FCV 65 open but cannot deliver flow at 4:38:19 hrs.
  WARNING: FCV 40 open but cannot deliver flow at 4:38:19 hrs.
  WARNING: FCV 3 open but cannot deliver flow at 4:38:19 hrs.
  
  WARNING: FCV 76 open but cannot deliver flow at 4:38:20 hrs.
  WARNING: FCV 74 open but cannot deliver flow at 4:38:20 hrs.
  WARNING: FCV 66 open but cannot deliver flow at 4:38:20 hrs.
  WARNING: FCV 40 open but cannot deliver flow at 4:38:20 hrs.
  WARNING: FCV 3 open but cannot deliver flow at 4:38:20 hrs.
  
  WARNING: FCV 78 open but cannot deliver flow at 4:38:21 hrs.
  WARNING: FCV 76 open but cannot deliver flow at 4:38:21 hrs.
  WARNING: FCV 74 open but cannot deliver flow at 4:38:21 hrs.
  WARNING: FCV 66 open but cannot deliver flow at 4:38:21 hrs.
  WARNING: FCV 65 open but cannot deliver flow at 4:38:21 hrs.
  WARNING: FCV 3 open but cannot deliver flow at 4:38:21 hrs.
  
  WARNING: FCV 78 open but cannot deliver flow at 4:38:22 hrs.
  WARNING: FCV 66 open but cannot deliver flow at 4:38:22 hrs.
  WARNING: FCV 65 open but cannot deliver flow at 4:38:22 hrs.
  WARNING: FCV 40 open but cannot deliver flow at 4:38:22 hrs.
  WARNING: FCV 3 open but cannot deliver flow at 4:38:22 hrs.
  
  WARNING: FCV 76 open but cannot deliver flow at 4:38:23 hrs.
  WARNING: FCV 74 open but cannot deliver flow at 4:38:23 hrs.
  WARNING: FCV 65 open but cannot deliver flow at 4:38:23 hrs.
  WARNING: FCV 40 open but cannot deliver flow at 4:38:23 hrs.
  WARNING: FCV 3 open but cannot deliver flow at 4:38:23 hrs.
  
  WARNING: FCV 78 open but cannot deliver flow at 4:38:24 hrs.
  WARNING: FCV 76 open but cannot deliver flow at 4:38:24 hrs.
  WARNING: FCV 74 open but cannot deliver flow at 4:38:24 hrs.
  WARNING: FCV 66 open but cannot deliver flow at 4:38:24 hrs.
  WARNING: FCV 3 open but cannot deliver flow at 4:38:24 hrs.
  
  WARNING: FCV 78 open but cannot deliver flow at 4:38:25 hrs.
  WARNING: FCV 66 open but cannot deliver flow at 4:38:25 hrs.
  WARNING: FCV 65 open but cannot deliver flow at 4:38:25 hrs.
  WARNING: FCV 40 open but cannot deliver flow at 4:38:25 hrs.
  WARNING: FCV 3 open but cannot deliver flow at 4:38:25 hrs.
  
  WARNING: FCV 76 open but cannot deliver flow at 4:38:26 hrs.
  WARNING: FCV 74 open but cannot deliver flow at 4:38:26 hrs.
  WARNING: FCV 66 open but cannot deliver flow at 4:38:26 hrs.
  WARNING: FCV 65 open but cannot deliver flow at 4:38:26 hrs.
  WARNING: FCV 40 open but cannot deliver flow at 4:38:26 hrs.
  WARNING: FCV 3 open but cannot deliver flow at 4:38:26 hrs.
  
  WARNING: FCV 78 open but cannot deliver flow at 4:38:27 hrs.
  WARNING: FCV 76 open but cannot deliver flow at 4:38:27 hrs.
  WARNING: FCV 74 open but cannot deliver flow at 4:38:27 hrs.
  WARNING: FCV 66 open but cannot deliver flow at 4:38:27 hrs.
  WARNING: FCV 65 open but cannot deliver flow at 4:38:27 hrs.
  WARNING: FCV 3 open but cannot deliver flow at 4:38:27 hrs.
  
  WARNING: FCV 78 open but cannot deliver flow at 4:38:28 hrs.
  WARNING: FCV 40 open but cannot deliver flow at 4:38:28 hrs.
  WARNING: FCV 3 open but cannot deliver flow at 4:38:28 hrs.
  
  WARNING: FCV 76 open but cannot deliver flow at 4:38:29 hrs.
  WARNING: FCV 74 open but cannot deliver flow at 4:38:29 hrs.
  WARNING: FCV 66 open but cannot deliver flow at 4:38:29 hrs.
  WARNING: FCV 65 open but cannot deliver flow at 4:38:29 hrs.
  WARNING: FCV 40 open but cannot deliver flow at 4:38:29 hrs.
  WARNING: FCV 3 open but cannot deliver flow at 4:38:29 hrs.
  
  WARNING: FCV 78 open but cannot deliver flow at 4:38:30 hrs.
  WARNING: FCV 76 open but cannot deliver flow at 4:38:30 hrs.
  WARNING: FCV 74 open but cannot deliver flow at 4:38:30 hrs.
  WARNING: FCV 66 open but cannot deliver flow at 4:38:30 hrs.
  WARNING: FCV 65 open but cannot deliver flow at 4:38:30 hrs.
  WARNING: FCV 3 open but cannot deliver flow at 4:38:30 hrs.
  
  WARNING: FCV 78 open but cannot deliver flow at 4:38:31 hrs.
  WARNING: FCV 66 open but cannot deliver flow at 4:38:31 hrs.
  WARNING: FCV 65 open but cannot deliver flow at 4:38:31 hrs.
  WARNING: FCV 40 open but cannot deliver flow at 4:38:31 hrs.
  WARNING: FCV 3 open but cannot deliver flow at 4:38:31 hrs.
  
  WARNING: FCV 76 open but cannot deliver flow at 4:38:32 hrs.
  WARNING: FCV 74 open but cannot deliver flow at 4:38:32 hrs.
  WARNING: FCV 66 open but cannot deliver flow at 4:38:32 hrs.
  WARNING: FCV 40 open but cannot deliver flow at 4:38:32 hrs.
  WARNING: FCV 3 open but cannot deliver flow at 4:38:32 hrs.
  
  WARNING: FCV 78 open but cannot deliver flow at 4:38:33 hrs.
  WARNING: FCV 76 open but cannot deliver flow at 4:38:33 hrs.
  WARNING: FCV 74 open but cannot deliver flow at 4:38:33 hrs.
  WARNING: FCV 65 open but cannot deliver flow at 4:38:33 hrs.
  WARNING: FCV 3 open but cannot deliver flow at 4:38:33 hrs.
  
  WARNING: FCV 78 open but cannot deliver flow at 4:38:34 hrs.
  WARNING: FCV 66 open but cannot deliver flow at 4:38:34 hrs.
  WARNING: FCV 65 open but cannot deliver flow at 4:38:34 hrs.
  WARNING: FCV 40 open but cannot deliver flow at 4:38:34 hrs.
  WARNING: FCV 3 open but cannot deliver flow at 4:38:34 hrs.
  
  WARNING: FCV 76 open but cannot deliver flow at 4:38:35 hrs.
  WARNING: FCV 74 open but cannot deliver flow at 4:38:35 hrs.
  WARNING: FCV 66 open but cannot deliver flow at 4:38:35 hrs.
  WARNING: FCV 65 open but cannot deliver flow at 4:38:35 hrs.
  WARNING: FCV 40 open but cannot deliver flow at 4:38:35 hrs.
  WARNING: FCV 3 open but cannot deliver flow at 4:38:35 hrs.
  
  WARNING: FCV 78 open but cannot deliver flow at 4:38:36 hrs.
  WARNING: FCV 76 open but cannot deliver flow at 4:38:36 hrs.
  WARNING: FCV 74 open but cannot deliver flow at 4:38:36 hrs.
  WARNING: FCV 66 open but cannot deliver flow at 4:38:36 hrs.
  WARNING: FCV 3 open but cannot deliver flow at 4:38:36 hrs.
  
  WARNING: FCV 78 open but cannot deliver flow at 4:38:37 hrs.
  WARNING: FCV 66 open but cannot deliver flow at 4:38:37 hrs.
  WARNING: FCV 65 open but cannot deliver flow at 4:38:37 hrs.
  WARNING: FCV 40 open but cannot deliver flow at 4:38:37 hrs.
  WARNING: FCV 3 open but cannot deliver flow at 4:38:37 hrs.
  
  WARNING: FCV 76 open but cannot deliver flow at 4:38:38 hrs.
  WARNING: FCV 74 open but cannot deliver flow at 4:38:38 hrs.
  WARNING: FCV 65 open but cannot deliver flow at 4:38:38 hrs.
  WARNING: FCV 40 open but cannot deliver flow at 4:38:38 hrs.
  WARNING: FCV 3 open but cannot deliver flow at 4:38:38 hrs.
  
  WARNING: FCV 78 open but cannot deliver flow at 4:38:39 hrs.
  WARNING: FCV 76 open but cannot deliver flow at 4:38:39 hrs.
  WARNING: FCV 74 open but cannot deliver flow at 4:38:39 hrs.
  WARNING: FCV 66 open but cannot deliver flow at 4:38:39 hrs.
  WARNING: FCV 65 open but cannot deliver flow at 4:38:39 hrs.
  WARNING: FCV 3 open but cannot deliver flow at 4:38:39 hrs.
  
  WARNING: FCV 78 open but cannot deliver flow at 4:38:40 hrs.
  WARNING: FCV 66 open but cannot deliver flow at 4:38:40 hrs.
  WARNING: FCV 40 open but cannot deliver flow at 4:38:40 hrs.
  WARNING: FCV 3 open but cannot deliver flow at 4:38:40 hrs.
  
  WARNING: FCV 76 open but cannot deliver flow at 4:38:41 hrs.
  WARNING: FCV 74 open but cannot deliver flow at 4:38:41 hrs.
  WARNING: FCV 66 open but cannot deliver flow at 4:38:41 hrs.
  WARNING: FCV 65 open but cannot deliver flow at 4:38:41 hrs.
  WARNING: FCV 40 open but cannot deliver flow at 4:38:41 hrs.
  WARNING: FCV 3 open but cannot deliver flow at 4:38:41 hrs.
  
  WARNING: FCV 78 open but cannot deliver flow at 4:38:42 hrs.
  WARNING: FCV 76 open but cannot deliver flow at 4:38:42 hrs.
  WARNING: FCV 74 open but cannot deliver flow at 4:38:42 hrs.
  WARNING: FCV 66 open but cannot deliver flow at 4:38:42 hrs.
  WARNING: FCV 65 open but cannot deliver flow at 4:38:42 hrs.
  WARNING: FCV 3 open but cannot deliver flow at 4:38:42 hrs.
  
  WARNING: FCV 78 open but cannot deliver flow at 4:38:43 hrs.
  WARNING: FCV 65 open but cannot deliver flow at 4:38:43 hrs.
  WARNING: FCV 40 open but cannot deliver flow at 4:38:43 hrs.
  WARNING: FCV 3 open but cannot deliver flow at 4:38:43 hrs.
  
  WARNING: FCV 76 open but cannot deliver flow at 4:38:44 hrs.
  WARNING: FCV 74 open but cannot deliver flow at 4:38:44 hrs.
  WARNING: FCV 66 open but cannot deliver flow at 4:38:44 hrs.
  WARNING: FCV 40 open but cannot deliver flow at 4:38:44 hrs.
  WARNING: FCV 3 open but cannot deliver flow at 4:38:44 hrs.
  
  WARNING: FCV 78 open but cannot deliver flow at 4:38:45 hrs.
  WARNING: FCV 76 open but cannot deliver flow at 4:38:45 hrs.
  WARNING: FCV 74 open but cannot deliver flow at 4:38:45 hrs.
  WARNING: FCV 66 open but cannot deliver flow at 4:38:45 hrs.
  WARNING: FCV 65 open but cannot deliver flow at 4:38:45 hrs.
  WARNING: FCV 3 open but cannot deliver flow at 4:38:45 hrs.
  
  WARNING: FCV 78 open but cannot deliver flow at 4:38:46 hrs.
  WARNING: FCV 66 open but cannot deliver flow at 4:38:46 hrs.
  WARNING: FCV 65 open but cannot deliver flow at 4:38:46 hrs.
  WARNING: FCV 40 open but cannot deliver flow at 4:38:46 hrs.
  WARNING: FCV 3 open but cannot deliver flow at 4:38:46 hrs.
  
  WARNING: FCV 76 open but cannot deliver flow at 4:38:47 hrs.
  WARNING: FCV 74 open but cannot deliver flow at 4:38:47 hrs.
  WARNING: FCV 66 open but cannot deliver flow at 4:38:47 hrs.
  WARNING: FCV 65 open but cannot deliver flow at 4:38:47 hrs.
  WARNING: FCV 40 open but cannot deliver flow at 4:38:47 hrs.
  WARNING: FCV 3 open but cannot deliver flow at 4:38:47 hrs.
  
  WARNING: FCV 78 open but cannot deliver flow at 4:38:48 hrs.
  WARNING: FCV 76 open but cannot deliver flow at 4:38:48 hrs.
  WARNING: FCV 74 open but cannot deliver flow at 4:38:48 hrs.
  WARNING: FCV 3 open but cannot deliver flow at 4:38:48 hrs.
  
  WARNING: FCV 78 open but cannot deliver flow at 4:38:49 hrs.
  WARNING: FCV 66 open but cannot deliver flow at 4:38:49 hrs.
  WARNING: FCV 65 open but cannot deliver flow at 4:38:49 hrs.
  WARNING: FCV 40 open but cannot deliver flow at 4:38:49 hrs.
  WARNING: FCV 3 open but cannot deliver flow at 4:38:49 hrs.
  
  WARNING: FCV 76 open but cannot deliver flow at 4:38:50 hrs.
  WARNING: FCV 74 open but cannot deliver flow at 4:38:50 hrs.
  WARNING: FCV 66 open but cannot deliver flow at 4:38:50 hrs.
  WARNING: FCV 65 open but cannot deliver flow at 4:38:50 hrs.
  WARNING: FCV 40 open but cannot deliver flow at 4:38:50 hrs.
  WARNING: FCV 3 open but cannot deliver flow at 4:38:50 hrs.
  
  WARNING: FCV 78 open but cannot deliver flow at 4:38:51 hrs.
  WARNING: FCV 76 open but cannot deliver flow at 4:38:51 hrs.
  WARNING: FCV 74 open but cannot deliver flow at 4:38:51 hrs.
  WARNING: FCV 66 open but cannot deliver flow at 4:38:51 hrs.
  WARNING: FCV 65 open but cannot deliver flow at 4:38:51 hrs.
  WARNING: FCV 3 open but cannot deliver flow at 4:38:51 hrs.
  
  WARNING: FCV 78 open but cannot deliver flow at 4:38:52 hrs.
  WARNING: FCV 66 open but cannot deliver flow at 4:38:52 hrs.
  WARNING: FCV 40 open but cannot deliver flow at 4:38:52 hrs.
  WARNING: FCV 3 open but cannot deliver flow at 4:38:52 hrs.
  
  WARNING: FCV 76 open but cannot deliver flow at 4:38:53 hrs.
  WARNING: FCV 74 open but cannot deliver flow at 4:38:53 hrs.
  WARNING: FCV 65 open but cannot deliver flow at 4:38:53 hrs.
  WARNING: FCV 40 open but cannot deliver flow at 4:38:53 hrs.
  WARNING: FCV 3 open but cannot deliver flow at 4:38:53 hrs.
  
  WARNING: FCV 78 open but cannot deliver flow at 4:38:54 hrs.
  WARNING: FCV 76 open but cannot deliver flow at 4:38:54 hrs.
  WARNING: FCV 74 open but cannot deliver flow at 4:38:54 hrs.
  WARNING: FCV 66 open but cannot deliver flow at 4:38:54 hrs.
  WARNING: FCV 65 open but cannot deliver flow at 4:38:54 hrs.
  WARNING: FCV 3 open but cannot deliver flow at 4:38:54 hrs.
  
  WARNING: FCV 78 open but cannot deliver flow at 4:38:55 hrs.
  WARNING: FCV 66 open but cannot deliver flow at 4:38:55 hrs.
  WARNING: FCV 65 open but cannot deliver flow at 4:38:55 hrs.
  WARNING: FCV 40 open but cannot deliver flow at 4:38:55 hrs.
  WARNING: FCV 3 open but cannot deliver flow at 4:38:55 hrs.
  
  WARNING: FCV 76 open but cannot deliver flow at 4:38:56 hrs.
  WARNING: FCV 74 open but cannot deliver flow at 4:38:56 hrs.
  WARNING: FCV 66 open but cannot deliver flow at 4:38:56 hrs.
  WARNING: FCV 40 open but cannot deliver flow at 4:38:56 hrs.
  WARNING: FCV 3 open but cannot deliver flow at 4:38:56 hrs.
  
  WARNING: FCV 78 open but cannot deliver flow at 4:38:57 hrs.
  WARNING: FCV 76 open but cannot deliver flow at 4:38:57 hrs.
  WARNING: FCV 74 open but cannot deliver flow at 4:38:57 hrs.
  WARNING: FCV 66 open but cannot deliver flow at 4:38:57 hrs.
  WARNING: FCV 65 open but cannot deliver flow at 4:38:57 hrs.
  WARNING: FCV 3 open but cannot deliver flow at 4:38:57 hrs.
  
  WARNING: FCV 78 open but cannot deliver flow at 4:38:58 hrs.
  WARNING: FCV 65 open but cannot deliver flow at 4:38:58 hrs.
  WARNING: FCV 40 open but cannot deliver flow at 4:38:58 hrs.
  WARNING: FCV 3 open but cannot deliver flow at 4:38:58 hrs.
  
  WARNING: FCV 76 open but cannot deliver flow at 4:38:59 hrs.
  WARNING: FCV 74 open but cannot deliver flow at 4:38:59 hrs.
  WARNING: FCV 66 open but cannot deliver flow at 4:38:59 hrs.
  WARNING: FCV 65 open but cannot deliver flow at 4:38:59 hrs.
  WARNING: FCV 40 open but cannot deliver flow at 4:38:59 hrs.
  WARNING: FCV 3 open but cannot deliver flow at 4:38:59 hrs.
  
  WARNING: FCV 78 open but cannot deliver flow at 4:39:00 hrs.
  WARNING: FCV 76 open but cannot deliver flow at 4:39:00 hrs.
  WARNING: FCV 74 open but cannot deliver flow at 4:39:00 hrs.
  WARNING: FCV 66 open but cannot deliver flow at 4:39:00 hrs.
  WARNING: FCV 3 open but cannot deliver flow at 4:39:00 hrs.
  
  WARNING: FCV 78 open but cannot deliver flow at 4:39:01 hrs.
  WARNING: FCV 66 open but cannot deliver flow at 4:39:01 hrs.
  WARNING: FCV 65 open but cannot deliver flow at 4:39:01 hrs.
  WARNING: FCV 40 open but cannot deliver flow at 4:39:01 hrs.
  WARNING: FCV 3 open but cannot deliver flow at 4:39:01 hrs.
  
  WARNING: FCV 76 open but cannot deliver flow at 4:39:02 hrs.
  WARNING: FCV 74 open but cannot deliver flow at 4:39:02 hrs.
  WARNING: FCV 66 open but cannot deliver flow at 4:39:02 hrs.
  WARNING: FCV 65 open but cannot deliver flow at 4:39:02 hrs.
  WARNING: FCV 40 open but cannot deliver flow at 4:39:02 hrs.
  WARNING: FCV 3 open but cannot deliver flow at 4:39:02 hrs.
  
  WARNING: FCV 78 open but cannot deliver flow at 4:39:03 hrs.
  WARNING: FCV 76 open but cannot deliver flow at 4:39:03 hrs.
  WARNING: FCV 74 open but cannot deliver flow at 4:39:03 hrs.
  WARNING: FCV 65 open but cannot deliver flow at 4:39:03 hrs.
  WARNING: FCV 3 open but cannot deliver flow at 4:39:03 hrs.
  
  WARNING: FCV 78 open but cannot deliver flow at 4:39:04 hrs.
  WARNING: FCV 66 open but cannot deliver flow at 4:39:04 hrs.
  WARNING: FCV 40 open but cannot deliver flow at 4:39:04 hrs.
  WARNING: FCV 3 open but cannot deliver flow at 4:39:04 hrs.
  
  WARNING: FCV 76 open but cannot deliver flow at 4:39:05 hrs.
  WARNING: FCV 74 open but cannot deliver flow at 4:39:05 hrs.
  WARNING: FCV 66 open but cannot deliver flow at 4:39:05 hrs.
  WARNING: FCV 65 open but cannot deliver flow at 4:39:05 hrs.
  WARNING: FCV 40 open but cannot deliver flow at 4:39:05 hrs.
  WARNING: FCV 3 open but cannot deliver flow at 4:39:05 hrs.
  
  WARNING: FCV 78 open but cannot deliver flow at 4:39:06 hrs.
  WARNING: FCV 76 open but cannot deliver flow at 4:39:06 hrs.
  WARNING: FCV 74 open but cannot deliver flow at 4:39:06 hrs.
  WARNING: FCV 66 open but cannot deliver flow at 4:39:06 hrs.
  WARNING: FCV 65 open but cannot deliver flow at 4:39:06 hrs.
  WARNING: FCV 3 open but cannot deliver flow at 4:39:06 hrs.
  
  WARNING: FCV 78 open but cannot deliver flow at 4:39:07 hrs.
  WARNING: FCV 66 open but cannot deliver flow at 4:39:07 hrs.
  WARNING: FCV 65 open but cannot deliver flow at 4:39:07 hrs.
  WARNING: FCV 40 open but cannot deliver flow at 4:39:07 hrs.
  WARNING: FCV 3 open but cannot deliver flow at 4:39:07 hrs.
  
  WARNING: FCV 76 open but cannot deliver flow at 4:39:08 hrs.
  WARNING: FCV 74 open but cannot deliver flow at 4:39:08 hrs.
  WARNING: FCV 40 open but cannot deliver flow at 4:39:08 hrs.
  WARNING: FCV 3 open but cannot deliver flow at 4:39:08 hrs.
  
  WARNING: FCV 78 open but cannot deliver flow at 4:39:09 hrs.
  WARNING: FCV 76 open but cannot deliver flow at 4:39:09 hrs.
  WARNING: FCV 74 open but cannot deliver flow at 4:39:09 hrs.
  WARNING: FCV 66 open but cannot deliver flow at 4:39:09 hrs.
  WARNING: FCV 65 open but cannot deliver flow at 4:39:09 hrs.
  WARNING: FCV 3 open but cannot deliver flow at 4:39:09 hrs.
  
  WARNING: FCV 78 open but cannot deliver flow at 4:39:10 hrs.
  WARNING: FCV 66 open but cannot deliver flow at 4:39:10 hrs.
  WARNING: FCV 65 open but cannot deliver flow at 4:39:10 hrs.
  WARNING: FCV 40 open but cannot deliver flow at 4:39:10 hrs.
  WARNING: FCV 3 open but cannot deliver flow at 4:39:10 hrs.
  
  WARNING: FCV 76 open but cannot deliver flow at 4:39:11 hrs.
  WARNING: FCV 74 open but cannot deliver flow at 4:39:11 hrs.
  WARNING: FCV 66 open but cannot deliver flow at 4:39:11 hrs.
  WARNING: FCV 65 open but cannot deliver flow at 4:39:11 hrs.
  WARNING: FCV 40 open but cannot deliver flow at 4:39:11 hrs.
  WARNING: FCV 3 open but cannot deliver flow at 4:39:11 hrs.
  
  WARNING: FCV 78 open but cannot deliver flow at 4:39:12 hrs.
  WARNING: FCV 76 open but cannot deliver flow at 4:39:12 hrs.
  WARNING: FCV 74 open but cannot deliver flow at 4:39:12 hrs.
  WARNING: FCV 66 open but cannot deliver flow at 4:39:12 hrs.
  WARNING: FCV 3 open but cannot deliver flow at 4:39:12 hrs.
  
  WARNING: FCV 78 open but cannot deliver flow at 4:39:13 hrs.
  WARNING: FCV 65 open but cannot deliver flow at 4:39:13 hrs.
  WARNING: FCV 40 open but cannot deliver flow at 4:39:13 hrs.
  WARNING: FCV 3 open but cannot deliver flow at 4:39:13 hrs.
  
  WARNING: FCV 76 open but cannot deliver flow at 4:39:14 hrs.
  WARNING: FCV 74 open but cannot deliver flow at 4:39:14 hrs.
  WARNING: FCV 66 open but cannot deliver flow at 4:39:14 hrs.
  WARNING: FCV 65 open but cannot deliver flow at 4:39:14 hrs.
  WARNING: FCV 40 open but cannot deliver flow at 4:39:14 hrs.
  WARNING: FCV 3 open but cannot deliver flow at 4:39:14 hrs.
  
  WARNING: FCV 78 open but cannot deliver flow at 4:39:15 hrs.
  WARNING: FCV 76 open but cannot deliver flow at 4:39:15 hrs.
[...]
  
  WARNING: FCV 78 open but cannot deliver flow at 20:35:18 hrs.
  WARNING: FCV 74 open but cannot deliver flow at 20:35:18 hrs.
  WARNING: FCV 65 open but cannot deliver flow at 20:35:18 hrs.
  WARNING: FCV 40 open but cannot deliver flow at 20:35:18 hrs.
  
  WARNING: FCV 76 open but cannot deliver flow at 20:35:19 hrs.
  WARNING: FCV 66 open but cannot deliver flow at 20:35:19 hrs.
  WARNING: FCV 3 open but cannot deliver flow at 20:35:19 hrs.
  
  WARNING: Negative pressures at 20:35:20 hrs.
  WARNING: FCV 78 open but cannot deliver flow at 20:35:20 hrs.
  WARNING: FCV 74 open but cannot deliver flow at 20:35:20 hrs.
  WARNING: FCV 65 open but cannot deliver flow at 20:35:20 hrs.
  WARNING: FCV 40 open but cannot deliver flow at 20:35:20 hrs.
  WARNING: Node 4 disconnected at 20:35:20 hrs
  WARNING: System disconnected because of Link 1
  
  WARNING: FCV 76 open but cannot deliver flow at 20:35:21 hrs.
  WARNING: FCV 3 open but cannot deliver flow at 20:35:21 hrs.
  
  WARNING: FCV 78 open but cannot deliver flow at 20:35:22 hrs.
  WARNING: FCV 74 open but cannot deliver flow at 20:35:22 hrs.
  WARNING: FCV 66 open but cannot deliver flow at 20:35:22 hrs.
  WARNING: FCV 65 open but cannot deliver flow at 20:35:22 hrs.
  WARNING: FCV 40 open but cannot deliver flow at 20:35:22 hrs.
  
  WARNING: FCV 76 open but cannot deliver flow at 20:35:23 hrs.
  WARNING: FCV 66 open but cannot deliver flow at 20:35:23 hrs.
  WARNING: FCV 3 open but cannot deliver flow at 20:35:23 hrs.
  
  WARNING: Negative pressures at 20:35:24 hrs.
  WARNING: FCV 78 open but cannot deliver flow at 20:35:24 hrs.
  WARNING: FCV 74 open but cannot deliver flow at 20:35:24 hrs.
  WARNING: FCV 65 open but cannot deliver flow at 20:35:24 hrs.
  WARNING: FCV 40 open but cannot deliver flow at 20:35:24 hrs.
  WARNING: Node 4 disconnected at 20:35:24 hrs
  WARNING: System disconnected because of Link 1
  
  WARNING: FCV 76 open but cannot deliver flow at 20:35:25 hrs.
  WARNING: FCV 66 open but cannot deliver flow at 20:35:25 hrs.
  WARNING: FCV 3 open but cannot deliver flow at 20:35:25 hrs.
  
  WARNING: FCV 78 open but cannot deliver flow at 20:35:26 hrs.
  WARNING: FCV 74 open but cannot deliver flow at 20:35:26 hrs.
  WARNING: FCV 65 open but cannot deliver flow at 20:35:26 hrs.
  WARNING: FCV 40 open but cannot deliver flow at 20:35:26 hrs.
  
  WARNING: Negative pressures at 20:35:27 hrs.
  WARNING: FCV 76 open but cannot deliver flow at 20:35:27 hrs.
  WARNING: FCV 3 open but cannot deliver flow at 20:35:27 hrs.
  WARNING: Node 4 disconnected at 20:35:27 hrs
  WARNING: System disconnected because of Link 1
  
  WARNING: FCV 78 open but cannot deliver flow at 20:35:28 hrs.
  WARNING: FCV 74 open but cannot deliver flow at 20:35:28 hrs.
  WARNING: FCV 66 open but cannot deliver flow at 20:35:28 hrs.
  WARNING: FCV 65 open but cannot deliver flow at 20:35:28 hrs.
  WARNING: FCV 40 open but cannot deliver flow at 20:35:28 hrs.
  
  WARNING: FCV 76 open but cannot deliver flow at 20:35:29 hrs.
  WARNING: FCV 66 open but cannot deliver flow at 20:35:29 hrs.
  WARNING: FCV 3 open but cannot deliver flow at 20:35:29 hrs.
  
  WARNING: FCV 78 open but cannot deliver flow at 20:35:30 hrs.
  WARNING: FCV 74 open but cannot deliver flow at 20:35:30 hrs.
  WARNING: FCV 65 open but cannot deliver flow at 20:35:30 hrs.
  WARNING: FCV 40 open but cannot deliver flow at 20:35:30 hrs.
  
  WARNING: Negative pressures at 20:35:31 hrs.
  WARNING: FCV 76 open but cannot deliver flow at 20:35:31 hrs.
  WARNING: FCV 66 open but cannot deliver flow at 20:35:31 hrs.
  WARNING: FCV 3 open but cannot deliver flow at 20:35:31 hrs.
  WARNING: Node 4 disconnected at 20:35:31 hrs
  WARNING: System disconnected because of Link 1
  
  WARNING: FCV 78 open but cannot deliver flow at 20:35:32 hrs.
  WARNING: FCV 74 open but cannot deliver flow at 20:35:32 hrs.
  WARNING: FCV 65 open but cannot deliver flow at 20:35:32 hrs.
  WARNING: FCV 40 open but cannot deliver flow at 20:35:32 hrs.
  
  WARNING: FCV 76 open but cannot deliver flow at 20:35:33 hrs.
  WARNING: FCV 3 open but cannot deliver flow at 20:35:33 hrs.
  
  WARNING: Negative pressures at 20:35:34 hrs.
  WARNING: FCV 78 open but cannot deliver flow at 20:35:34 hrs.
  WARNING: FCV 74 open but cannot deliver flow at 20:35:34 hrs.
  WARNING: FCV 66 open but cannot deliver flow at 20:35:34 hrs.
  WARNING: FCV 65 open but cannot deliver flow at 20:35:34 hrs.
  WARNING: FCV 40 open but cannot deliver flow at 20:35:34 hrs.
  WARNING: Node 4 disconnected at 20:35:34 hrs
  WARNING: System disconnected because of Link 1
  
  WARNING: FCV 76 open but cannot deliver flow at 20:35:35 hrs.
  WARNING: FCV 66 open but cannot deliver flow at 20:35:35 hrs.
  WARNING: FCV 3 open but cannot deliver flow at 20:35:35 hrs.
  
  WARNING: FCV 78 open but cannot deliver flow at 20:35:36 hrs.
  WARNING: FCV 74 open but cannot deliver flow at 20:35:36 hrs.
  WARNING: FCV 65 open but cannot deliver flow at 20:35:36 hrs.
  WARNING: FCV 40 open but cannot deliver flow at 20:35:36 hrs.
  
  WARNING: Negative pressures at 20:35:37 hrs.
  WARNING: FCV 76 open but cannot deliver flow at 20:35:37 hrs.
  WARNING: FCV 66 open but cannot deliver flow at 20:35:37 hrs.
  WARNING: FCV 3 open but cannot deliver flow at 20:35:37 hrs.
  WARNING: Node 4 disconnected at 20:35:37 hrs
  WARNING: System disconnected because of Link 1
  
  WARNING: FCV 78 open but cannot deliver flow at 20:35:38 hrs.
  WARNING: FCV 74 open but cannot deliver flow at 20:35:38 hrs.
  WARNING: FCV 65 open but cannot deliver flow at 20:35:38 hrs.
  WARNING: FCV 40 open but cannot deliver flow at 20:35:38 hrs.
  
  WARNING: FCV 76 open but cannot deliver flow at 20:35:39 hrs.
  WARNING: FCV 3 open but cannot deliver flow at 20:35:39 hrs.
  
  WARNING: FCV 78 open but cannot deliver flow at 20:35:40 hrs.
  WARNING: FCV 74 open but cannot deliver flow at 20:35:40 hrs.
  WARNING: FCV 66 open but cannot deliver flow at 20:35:40 hrs.
  WARNING: FCV 65 open but cannot deliver flow at 20:35:40 hrs.
  WARNING: FCV 40 open but cannot deliver flow at 20:35:40 hrs.
  
  WARNING: Negative pressures at 20:35:41 hrs.
  WARNING: FCV 76 open but cannot deliver flow at 20:35:41 hrs.
  WARNING: FCV 66 open but cannot deliver flow at 20:35:41 hrs.
  WARNING: FCV 3 open but cannot deliver flow at 20:35:41 hrs.
  WARNING: Node 4 disconnected at 20:35:41 hrs
  WARNING: System disconnected because of Link 1
  
  WARNING: FCV 78 open but cannot deliver flow at 20:35:42 hrs.
  WARNING: FCV 74 open but cannot deliver flow at 20:35:42 hrs.
  WARNING: FCV 65 open but cannot deliver flow at 20:35:42 hrs.
  WARNING: FCV 40 open but cannot deliver flow at 20:35:42 hrs.
  
  WARNING: FCV 76 open but cannot deliver flow at 20:35:43 hrs.
  WARNING: FCV 66 open but cannot deliver flow at 20:35:43 hrs.
  WARNING: FCV 3 open but cannot deliver flow at 20:35:43 hrs.
  
  WARNING: Negative pressures at 20:35:44 hrs.
  WARNING: FCV 78 open but cannot deliver flow at 20:35:44 hrs.
  WARNING: FCV 74 open but cannot deliver flow at 20:35:44 hrs.
  WARNING: FCV 65 open but cannot deliver flow at 20:35:44 hrs.
  WARNING: FCV 40 open but cannot deliver flow at 20:35:44 hrs.
  WARNING: Node 4 disconnected at 20:35:44 hrs
  WARNING: System disconnected because of Link 1
  
  WARNING: FCV 76 open but cannot deliver flow at 20:35:45 hrs.
  WARNING: FCV 3 open but cannot deliver flow at 20:35:45 hrs.
  
  WARNING: FCV 78 open but cannot deliver flow at 20:35:46 hrs.
  WARNING: FCV 74 open but cannot deliver flow at 20:35:46 hrs.
  WARNING: FCV 66 open but cannot deliver flow at 20:35:46 hrs.
  WARNING: FCV 65 open but cannot deliver flow at 20:35:46 hrs.
  WARNING: FCV 40 open but cannot deliver flow at 20:35:46 hrs.
  
  WARNING: FCV 76 open but cannot deliver flow at 20:35:47 hrs.
  WARNING: FCV 66 open but cannot deliver flow at 20:35:47 hrs.
  WARNING: FCV 3 open but cannot deliver flow at 20:35:47 hrs.
  
  WARNING: Negative pressures at 20:35:48 hrs.
  WARNING: FCV 78 open but cannot deliver flow at 20:35:48 hrs.
  WARNING: FCV 74 open but cannot deliver flow at 20:35:48 hrs.
  WARNING: FCV 65 open but cannot deliver flow at 20:35:48 hrs.
  WARNING: FCV 40 open but cannot deliver flow at 20:35:48 hrs.
  WARNING: Node 4 disconnected at 20:35:48 hrs
  WARNING: System disconnected because of Link 1
  
  WARNING: FCV 76 open but cannot deliver flow at 20:35:49 hrs.
  WARNING: FCV 66 open but cannot deliver flow at 20:35:49 hrs.
  WARNING: FCV 3 open but cannot deliver flow at 20:35:49 hrs.
  
  WARNING: FCV 78 open but cannot deliver flow at 20:35:50 hrs.
  WARNING: FCV 74 open but cannot deliver flow at 20:35:50 hrs.
  WARNING: FCV 65 open but cannot deliver flow at 20:35:50 hrs.
  WARNING: FCV 40 open but cannot deliver flow at 20:35:50 hrs.
  
  WARNING: Negative pressures at 20:35:51 hrs.
  WARNING: FCV 76 open but cannot deliver flow at 20:35:51 hrs.
  WARNING: FCV 3 open but cannot deliver flow at 20:35:51 hrs.
  WARNING: Node 4 disconnected at 20:35:51 hrs
  WARNING: System disconnected because of Link 1
  
  WARNING: FCV 78 open but cannot deliver flow at 20:35:52 hrs.
  WARNING: FCV 74 open but cannot deliver flow at 20:35:52 hrs.
  WARNING: FCV 66 open but cannot deliver flow at 20:35:52 hrs.
  WARNING: FCV 65 open but cannot deliver flow at 20:35:52 hrs.
  WARNING: FCV 40 open but cannot deliver flow at 20:35:52 hrs.
  
  WARNING: FCV 76 open but cannot deliver flow at 20:35:53 hrs.
  WARNING: FCV 66 open but cannot deliver flow at 20:35:53 hrs.
  WARNING: FCV 3 open but cannot deliver flow at 20:35:53 hrs.
  
  WARNING: FCV 78 open but cannot deliver flow at 20:35:54 hrs.
  WARNING: FCV 74 open but cannot deliver flow at 20:35:54 hrs.
  WARNING: FCV 65 open but cannot deliver flow at 20:35:54 hrs.
  WARNING: FCV 40 open but cannot deliver flow at 20:35:54 hrs.
  
  WARNING: Negative pressures at 20:35:55 hrs.
  WARNING: FCV 76 open but cannot deliver flow at 20:35:55 hrs.
  WARNING: FCV 66 open but cannot deliver flow at 20:35:55 hrs.
  WARNING: FCV 3 open but cannot deliver flow at 20:35:55 hrs.
  WARNING: Node 4 disconnected at 20:35:55 hrs
  WARNING: System disconnected because of Link 1
  
  WARNING: FCV 78 open but cannot deliver flow at 20:35:56 hrs.
  WARNING: FCV 74 open but cannot deliver flow at 20:35:56 hrs.
  WARNING: FCV 65 open but cannot deliver flow at 20:35:56 hrs.
  WARNING: FCV 40 open but cannot deliver flow at 20:35:56 hrs.
  
  WARNING: FCV 76 open but cannot deliver flow at 20:35:57 hrs.
  WARNING: FCV 3 open but cannot deliver flow at 20:35:57 hrs.
  
  WARNING: Negative pressures at 20:35:58 hrs.
  WARNING: FCV 78 open but cannot deliver flow at 20:35:58 hrs.
  WARNING: FCV 74 open but cannot deliver flow at 20:35:58 hrs.
  WARNING: FCV 66 open but cannot deliver flow at 20:35:58 hrs.
  WARNING: FCV 65 open but cannot deliver flow at 20:35:58 hrs.
  WARNING: FCV 40 open but cannot deliver flow at 20:35:58 hrs.
  WARNING: Node 4 disconnected at 20:35:58 hrs
  WARNING: System disconnected because of Link 1
  
  WARNING: FCV 76 open but cannot deliver flow at 20:35:59 hrs.
  WARNING: FCV 66 open but cannot deliver flow at 20:35:59 hrs.
  WARNING: FCV 3 open but cannot deliver flow at 20:35:59 hrs.
  
  WARNING: FCV 78 open but cannot deliver flow at 20:36:00 hrs.
  WARNING: FCV 74 open but cannot deliver flow at 20:36:00 hrs.
  WARNING: FCV 65 open but cannot deliver flow at 20:36:00 hrs.
  WARNING: FCV 40 open but cannot deliver flow at 20:36:00 hrs.
  
  WARNING: Negative pressures at 20:36:01 hrs.
  WARNING: FCV 76 open but cannot deliver flow at 20:36:01 hrs.
  WARNING: FCV 66 open but cannot deliver flow at 20:36:01 hrs.
  WARNING: FCV 3 open but cannot deliver flow at 20:36:01 hrs.
  WARNING: Node 4 disconnected at 20:36:01 hrs
  WARNING: System disconnected because of Link 1
  
  WARNING: FCV 78 open but cannot deliver flow at 20:36:02 hrs.
  WARNING: FCV 74 open but cannot deliver flow at 20:36:02 hrs.
  WARNING: FCV 65 open but cannot deliver flow at 20:36:02 hrs.
  WARNING: FCV 40 open but cannot deliver flow at 20:36:02 hrs.
  
  WARNING: FCV 76 open but cannot deliver flow at 20:36:03 hrs.
  WARNING: FCV 3 open but cannot deliver flow at 20:36:03 hrs.
  
  WARNING: FCV 78 open but cannot deliver flow at 20:36:04 hrs.
  WARNING: FCV 74 open but cannot deliver flow at 20:36:04 hrs.
  WARNING: FCV 66 open but cannot deliver flow at 20:36:04 hrs.
  WARNING: FCV 65 open but cannot deliver flow at 20:36:04 hrs.
  WARNING: FCV 40 open but cannot deliver flow at 20:36:04 hrs.
  
  WARNING: Negative pressures at 20:36:05 hrs.
  WARNING: FCV 76 open but cannot deliver flow at 20:36:05 hrs.
  WARNING: FCV 66 open but cannot deliver flow at 20:36:05 hrs.
  WARNING: FCV 3 open but cannot deliver flow at 20:36:05 hrs.
  WARNING: Node 4 disconnected at 20:36:05 hrs
  WARNING: System disconnected because of Link 1
  
  WARNING: FCV 78 open but cannot deliver flow at 20:36:06 hrs.
  WARNING: FCV 74 open but cannot deliver flow at 20:36:06 hrs.
  WARNING: FCV 65 open but cannot deliver flow at 20:36:06 hrs.
  WARNING: FCV 40 open but cannot deliver flow at 20:36:06 hrs.
  
  WARNING: FCV 76 open but cannot deliver flow at 20:36:07 hrs.
  WARNING: FCV 66 open but cannot deliver flow at 20:36:07 hrs.
  WARNING: FCV 3 open but cannot deliver flow at 20:36:07 hrs.
  
  WARNING: Negative pressures at 20:36:08 hrs.
  WARNING: FCV 78 open but cannot deliver flow at 20:36:08 hrs.
  WARNING: FCV 74 open but cannot deliver flow at 20:36:08 hrs.
  WARNING: FCV 65 open but cannot deliver flow at 20:36:08 hrs.
  WARNING: FCV 40 open but cannot deliver flow at 20:36:08 hrs.
  WARNING: Node 4 disconnected at 20:36:08 hrs
  WARNING: System disconnected because of Link 1
  
  WARNING: FCV 76 open but cannot deliver flow at 20:36:09 hrs.
  WARNING: FCV 3 open but cannot deliver flow at 20:36:09 hrs.
  
  WARNING: FCV 78 open but cannot deliver flow at 20:36:10 hrs.
  WARNING: FCV 74 open but cannot deliver flow at 20:36:10 hrs.
  WARNING: FCV 66 open but cannot deliver flow at 20:36:10 hrs.
  WARNING: FCV 65 open but cannot deliver flow at 20:36:10 hrs.
  WARNING: FCV 40 open but cannot deliver flow at 20:36:10 hrs.
  
  WARNING: FCV 76 open but cannot deliver flow at 20:36:11 hrs.
  WARNING: FCV 66 open but cannot deliver flow at 20:36:11 hrs.
  WARNING: FCV 3 open but cannot deliver flow at 20:36:11 hrs.
  
  WARNING: Negative pressures at 20:36:12 hrs.
  WARNING: FCV 78 open but cannot deliver flow at 20:36:12 hrs.
  WARNING: FCV 74 open but cannot deliver flow at 20:36:12 hrs.
  WARNING: FCV 65 open but cannot deliver flow at 20:36:12 hrs.
  WARNING: FCV 40 open but cannot deliver flow at 20:36:12 hrs.
  WARNING: Node 4 disconnected at 20:36:12 hrs
  WARNING: System disconnected because of Link 1
  
  WARNING: FCV 76 open but cannot deliver flow at 20:36:13 hrs.
  WARNING: FCV 66 open but cannot deliver flow at 20:36:13 hrs.
  WARNING: FCV 3 open but cannot deliver flow at 20:36:13 hrs.
  
  WARNING: FCV 78 open but cannot deliver flow at 20:36:14 hrs.
  WARNING: FCV 74 open but cannot deliver flow at 20:36:14 hrs.
  WARNING: FCV 65 open but cannot deliver flow at 20:36:14 hrs.
  WARNING: FCV 40 open but cannot deliver flow at 20:36:14 hrs.
  
  WARNING: Negative pressures at 20:36:15 hrs.
  WARNING: FCV 76 open but cannot deliver flow at 20:36:15 hrs.
  WARNING: FCV 3 open but cannot deliver flow at 20:36:15 hrs.
  WARNING: Node 4 disconnected at 20:36:15 hrs
  WARNING: System disconnected because of Link 1
  
  WARNING: FCV 78 open but cannot deliver flow at 20:36:16 hrs.
  WARNING: FCV 74 open but cannot deliver flow at 20:36:16 hrs.
  WARNING: FCV 66 open but cannot deliver flow at 20:36:16 hrs.
  WARNING: FCV 65 open but cannot deliver flow at 20:36:16 hrs.
  WARNING: FCV 40 open but cannot deliver flow at 20:36:16 hrs.
  
  WARNING: FCV 76 open but cannot deliver flow at 20:36:17 hrs.
  WARNING: FCV 66 open but cannot deliver flow at 20:36:17 hrs.
  WARNING: FCV 3 open but cannot deliver flow at 20:36:17 hrs.
  
  WARNING: Negative pressures at 20:36:18 hrs.
  WARNING: FCV 78 open but cannot deliver flow at 20:36:18 hrs.
  WARNING: FCV 74 open but cannot deliver flow at 20:36:18 hrs.
  WARNING: FCV 65 open but cannot deliver flow at 20:36:18 hrs.
  WARNING: FCV 40 open but cannot deliver flow at 20:36:18 hrs.
  WARNING: Node 4 disconnected at 20:36:18 hrs
  WARNING: System disconnected because of Link 1
  
  WARNING: FCV 76 open but cannot deliver flow at 20:36:19 hrs.
  WARNING: FCV 66 open but cannot deliver flow at 20:36:19 hrs.
  WARNING: FCV 3 open but cannot deliver flow at 20:36:19 hrs.
  
  WARNING: FCV 78 open but cannot deliver flow at 20:36:20 hrs.
  WARNING: FCV 74 open but cannot deliver flow at 20:36:20 hrs.
  WARNING: FCV 65 open but cannot deliver flow at 20:36:20 hrs.
  WARNING: FCV 40 open but cannot deliver flow at 20:36:20 hrs.
  
  WARNING: FCV 76 open but cannot deliver flow at 20:36:21 hrs.
  WARNING: FCV 3 open but cannot deliver flow at 20:36:21 hrs.
  
  WARNING: Negative pressures at 20:36:22 hrs.
  WARNING: FCV 78 open but cannot deliver flow at 20:36:22 hrs.
  WARNING: FCV 74 open but cannot deliver flow at 20:36:22 hrs.
  WARNING: FCV 66 open but cannot deliver flow at 20:36:22 hrs.
  WARNING: FCV 65 open but cannot deliver flow at 20:36:22 hrs.
  WARNING: FCV 40 open but cannot deliver flow at 20:36:22 hrs.
  WARNING: Node 4 disconnected at 20:36:22 hrs
  WARNING: System disconnected because of Link 1
  
  WARNING: FCV 76 open but cannot deliver flow at 20:36:23 hrs.
  WARNING: FCV 66 open but cannot deliver flow at 20:36:23 hrs.
  WARNING: FCV 3 open but cannot deliver flow at 20:36:23 hrs.
  
  WARNING: FCV 78 open but cannot deliver flow at 20:36:24 hrs.
  WARNING: FCV 74 open but cannot deliver flow at 20:36:24 hrs.
  WARNING: FCV 65 open but cannot deliver flow at 20:36:24 hrs.
  WARNING: FCV 40 open but cannot deliver flow at 20:36:24 hrs.
  
  WARNING: Negative pressures at 20:36:25 hrs.
  WARNING: FCV 76 open but cannot deliver flow at 20:36:25 hrs.
  WARNING: FCV 66 open but cannot deliver flow at 20:36:25 hrs.
  WARNING: FCV 3 open but cannot deliver flow at 20:36:25 hrs.
  WARNING: Node 4 disconnected at 20:36:25 hrs
  WARNING: System disconnected because of Link 1
  
  WARNING: FCV 78 open but cannot deliver flow at 20:36:26 hrs.
  WARNING: FCV 74 open but cannot deliver flow at 20:36:26 hrs.
  WARNING: FCV 65 open but cannot deliver flow at 20:36:26 hrs.
  WARNING: FCV 40 open but cannot deliver flow at 20:36:26 hrs.
  
  WARNING: FCV 76 open but cannot deliver flow at 20:36:27 hrs.
  WARNING: FCV 3 open but cannot deliver flow at 20:36:27 hrs.
  
  WARNING: FCV 78 open but cannot deliver flow at 20:36:28 hrs.
  WARNING: FCV 74 open but cannot deliver flow at 20:36:28 hrs.
  WARNING: FCV 66 open but cannot deliver flow at 20:36:28 hrs.
  WARNING: FCV 65 open but cannot deliver flow at 20:36:28 hrs.
  WARNING: FCV 40 open but cannot deliver flow at 20:36:28 hrs.
  
  WARNING: Negative pressures at 20:36:29 hrs.
  WARNING: FCV 76 open but cannot deliver flow at 20:36:29 hrs.
  WARNING: FCV 66 open but cannot deliver flow at 20:36:29 hrs.
  WARNING: FCV 3 open but cannot deliver flow at 20:36:29 hrs.
  WARNING: Node 4 disconnected at 20:36:29 hrs
  WARNING: System disconnected because of Link 1
  
  WARNING: FCV 78 open but cannot deliver flow at 20:36:30 hrs.
  WARNING: FCV 74 open but cannot deliver flow at 20:36:30 hrs.
  WARNING: FCV 65 open but cannot deliver flow at 20:36:30 hrs.
  WARNING: FCV 40 open but cannot deliver flow at 20:36:30 hrs.
  
  WARNING: FCV 76 open but cannot deliver flow at 20:36:31 hrs.
  WARNING: FCV 66 open but cannot deliver flow at 20:36:31 hrs.
  WARNING: FCV 3 open but cannot deliver flow at 20:36:31 hrs.
  
  WARNING: Negative pressures at 20:36:32 hrs.
  WARNING: FCV 78 open but cannot deliver flow at 20:36:32 hrs.
  WARNING: FCV 74 open but cannot deliver flow at 20:36:32 hrs.
  WARNING: FCV 65 open but cannot deliver 