  Page 1                                    Wed Feb  3 19:15:52 2016

  ******************************************************************
  *                           E P A N E T                          *
  *                   Hydraulic and Water Quality                  *
  *                   Analysis for Pipe Networks                   *
  *                         Version 2.00.12                        *
  ******************************************************************
  
  Analysis begun Wed Feb  3 19:15:52 2016

  WARNING: FCV 78 open but cannot deliver flow at 0:00:00 hrs.
  
  WARNING: FCV 78 open but cannot deliver flow at 0:10:00 hrs.
  
  WARNING: FCV 78 open but cannot deliver flow at 0:20:00 hrs.
  
  WARNING: FCV 78 open but cannot deliver flow at 0:30:00 hrs.
  
  WARNING: FCV 78 open but cannot deliver flow at 0:40:00 hrs.
  
  WARNING: FCV 78 open but cannot deliver flow at 0:50:00 hrs.
  
  WARNING: FCV 78 open but cannot deliver flow at 1:00:00 hrs.
  
  WARNING: FCV 78 open but cannot deliver flow at 1:10:00 hrs.
  
  WARNING: FCV 78 open but cannot deliver flow at 1:20:00 hrs.
  
  WARNING: FCV 76 open but cannot deliver flow at 1:21:52 hrs.
  WARNING: FCV 3 open but cannot deliver flow at 1:21:52 hrs.
  
  WARNING: FCV 78 open but cannot deliver flow at 1:31:52 hrs.
  
  WARNING: FCV 76 open but cannot deliver flow at 1:32:58 hrs.
  WARNING: FCV 3 open but cannot deliver flow at 1:32:58 hrs.
  
  WARNING: FCV 78 open but cannot deliver flow at 1:42:58 hrs.
  
  WARNING: FCV 76 open but cannot deliver flow at 1:44:04 hrs.
  WARNING: FCV 3 open but cannot deliver flow at 1:44:04 hrs.
  
  WARNING: FCV 78 open but cannot deliver flow at 1:54:04 hrs.
  
  WARNING: FCV 76 open but cannot deliver flow at 1:55:10 hrs.
  WARNING: FCV 3 open but cannot deliver flow at 1:55:10 hrs.
  
  WARNING: FCV 78 open but cannot deliver flow at 2:00:00 hrs.
  
  WARNING: FCV 76 open but cannot deliver flow at 2:00:32 hrs.
  WARNING: FCV 3 open but cannot deliver flow at 2:00:32 hrs.
  
  WARNING: FCV 78 open but cannot deliver flow at 2:10:32 hrs.
  
  WARNING: FCV 76 open but cannot deliver flow at 2:11:38 hrs.
  WARNING: FCV 3 open but cannot deliver flow at 2:11:38 hrs.
  
  WARNING: FCV 78 open but cannot deliver flow at 2:21:38 hrs.
  
  WARNING: FCV 76 open but cannot deliver flow at 2:22:44 hrs.
  WARNING: FCV 3 open but cannot deliver flow at 2:22:44 hrs.
  
  WARNING: FCV 78 open but cannot deliver flow at 2:32:44 hrs.
  
  WARNING: FCV 76 open but cannot deliver flow at 2:33:50 hrs.
  WARNING: FCV 3 open but cannot deliver flow at 2:33:50 hrs.
  
  WARNING: FCV 74 open but cannot deliver flow at 2:36:54 hrs.
  WARNING: FCV 3 open but cannot deliver flow at 2:36:54 hrs.
  
  WARNING: FCV 76 open but cannot deliver flow at 2:37:14 hrs.
  WARNING: FCV 3 open but cannot deliver flow at 2:37:14 hrs.
  
  WARNING: FCV 74 open but cannot deliver flow at 2:37:18 hrs.
  WARNING: FCV 3 open but cannot deliver flow at 2:37:18 hrs.
  
  WARNING: FCV 76 open but cannot deliver flow at 2:47:18 hrs.
  WARNING: FCV 3 open but cannot deliver flow at 2:47:18 hrs.
  
  WARNING: FCV 74 open but cannot deliver flow at 2:49:18 hrs.
  WARNING: FCV 3 open but cannot deliver flow at 2:49:18 hrs.
  
  WARNING: FCV 76 open but cannot deliver flow at 2:49:31 hrs.
  WARNING: FCV 3 open but cannot deliver flow at 2:49:31 hrs.
  
  WARNING: FCV 74 open but cannot deliver flow at 2:49:34 hrs.
  WARNING: FCV 3 open but cannot deliver flow at 2:49:34 hrs.
  
  WARNING: FCV 76 open but cannot deliver flow at 2:59:34 hrs.
  WARNING: FCV 3 open but cannot deliver flow at 2:59:34 hrs.
  
  WARNING: FCV 78 open but cannot deliver flow at 3:00:00 hrs.
  
  WARNING: FCV 76 open but cannot deliver flow at 3:00:03 hrs.
  WARNING: FCV 3 open but cannot deliver flow at 3:00:03 hrs.
  
  WARNING: FCV 74 open but cannot deliver flow at 3:01:34 hrs.
  WARNING: FCV 3 open but cannot deliver flow at 3:01:34 hrs.
  
  WARNING: FCV 76 open but cannot deliver flow at 3:01:44 hrs.
  WARNING: FCV 3 open but cannot deliver flow at 3:01:44 hrs.
  
  WARNING: FCV 76 open but cannot deliver flow at 3:01:46 hrs.
  WARNING: FCV 74 open but cannot deliver flow at 3:01:46 hrs.
  WARNING: FCV 3 open but cannot deliver flow at 3:01:46 hrs.
  
  WARNING: FCV 78 open but cannot deliver flow at 3:11:46 hrs.
  
  WARNING: FCV 76 open but cannot deliver flow at 3:12:52 hrs.
  WARNING: FCV 3 open but cannot deliver flow at 3:12:52 hrs.
  
  WARNING: FCV 74 open but cannot deliver flow at 3:13:46 hrs.
  WARNING: FCV 3 open but cannot deliver flow at 3:13:46 hrs.
  
  WARNING: FCV 76 open but cannot deliver flow at 3:13:52 hrs.
  WARNING: FCV 3 open but cannot deliver flow at 3:13:52 hrs.
  
  WARNING: FCV 76 open but cannot deliver flow at 3:13:53 hrs.
  WARNING: FCV 74 open but cannot deliver flow at 3:13:53 hrs.
  WARNING: FCV 3 open but cannot deliver flow at 3:13:53 hrs.
  
  WARNING: FCV 78 open but cannot deliver flow at 3:23:53 hrs.
  
  WARNING: FCV 76 open but cannot deliver flow at 3:24:59 hrs.
  WARNING: FCV 3 open but cannot deliver flow at 3:24:59 hrs.
  
  WARNING: FCV 74 open but cannot deliver flow at 3:25:53 hrs.
  WARNING: FCV 3 open but cannot deliver flow at 3:25:53 hrs.
  
  WARNING: FCV 76 open but cannot deliver flow at 3:25:59 hrs.
  WARNING: FCV 3 open but cannot deliver flow at 3:25:59 hrs.
  
  WARNING: FCV 76 open but cannot deliver flow at 3:26:00 hrs.
  WARNING: FCV 74 open but cannot deliver flow at 3:26:00 hrs.
  WARNING: FCV 3 open but cannot deliver flow at 3:26:00 hrs.
  
  WARNING: FCV 78 open but cannot deliver flow at 3:32:03 hrs.
  WARNING: FCV 65 open but cannot deliver flow at 3:32:03 hrs.
  
  WARNING: FCV 76 open but cannot deliver flow at 3:32:43 hrs.
  WARNING: FCV 3 open but cannot deliver flow at 3:32:43 hrs.
  
  WARNING: FCV 78 open but cannot deliver flow at 3:32:48 hrs.
  WARNING: FCV 65 open but cannot deliver flow at 3:32:48 hrs.
  
  WARNING: FCV 76 open but cannot deliver flow at 3:32:49 hrs.
  WARNING: FCV 65 open but cannot deliver flow at 3:32:49 hrs.
  WARNING: FCV 3 open but cannot deliver flow at 3:32:49 hrs.
  
  WARNING: FCV 74 open but cannot deliver flow at 3:33:16 hrs.
  WARNING: FCV 3 open but cannot deliver flow at 3:33:16 hrs.
  
  WARNING: FCV 76 open but cannot deliver flow at 3:33:19 hrs.
  WARNING: FCV 65 open but cannot deliver flow at 3:33:19 hrs.
  WARNING: FCV 3 open but cannot deliver flow at 3:33:19 hrs.
  
  WARNING: FCV 76 open but cannot deliver flow at 3:33:20 hrs.
  WARNING: FCV 74 open but cannot deliver flow at 3:33:20 hrs.
  WARNING: FCV 65 open but cannot deliver flow at 3:33:20 hrs.
  WARNING: FCV 3 open but cannot deliver flow at 3:33:20 hrs.
  
  WARNING: FCV 78 open but cannot deliver flow at 3:41:59 hrs.
  WARNING: FCV 3 open but cannot deliver flow at 3:41:59 hrs.
  
  WARNING: FCV 76 open but cannot deliver flow at 3:42:56 hrs.
  WARNING: FCV 3 open but cannot deliver flow at 3:42:56 hrs.
  
  WARNING: FCV 78 open but cannot deliver flow at 3:43:06 hrs.
  WARNING: FCV 3 open but cannot deliver flow at 3:43:06 hrs.
  
  WARNING: FCV 78 open but cannot deliver flow at 3:43:07 hrs.
  WARNING: FCV 76 open but cannot deliver flow at 3:43:07 hrs.
  WARNING: FCV 3 open but cannot deliver flow at 3:43:07 hrs.
  
  WARNING: FCV 78 open but cannot deliver flow at 3:43:10 hrs.
  WARNING: FCV 65 open but cannot deliver flow at 3:43:10 hrs.
  
  WARNING: FCV 78 open but cannot deliver flow at 3:43:13 hrs.
  WARNING: FCV 76 open but cannot deliver flow at 3:43:13 hrs.
  WARNING: FCV 65 open but cannot deliver flow at 3:43:13 hrs.
  WARNING: FCV 3 open but cannot deliver flow at 3:43:13 hrs.
  
  WARNING: FCV 74 open but cannot deliver flow at 3:43:43 hrs.
  WARNING: FCV 3 open but cannot deliver flow at 3:43:43 hrs.
  
  WARNING: FCV 76 open but cannot deliver flow at 3:43:46 hrs.
  WARNING: FCV 3 open but cannot deliver flow at 3:43:46 hrs.
  
  WARNING: FCV 76 open but cannot deliver flow at 3:43:47 hrs.
  WARNING: FCV 74 open but cannot deliver flow at 3:43:47 hrs.
  WARNING: FCV 65 open but cannot deliver flow at 3:43:47 hrs.
  WARNING: FCV 3 open but cannot deliver flow at 3:43:47 hrs.
  
  WARNING: FCV 78 open but cannot deliver flow at 3:43:48 hrs.
  WARNING: FCV 76 open but cannot deliver flow at 3:43:48 hrs.
  WARNING: FCV 74 open but cannot deliver flow at 3:43:48 hrs.
  WARNING: FCV 65 open but cannot deliver flow at 3:43:48 hrs.
  WARNING: FCV 3 open but cannot deliver flow at 3:43:48 hrs.
  
  WARNING: FCV 78 open but cannot deliver flow at 3:53:48 hrs.
  
  WARNING: FCV 76 open but cannot deliver flow at 3:54:54 hrs.
  WARNING: FCV 3 open but cannot deliver flow at 3:54:54 hrs.
  
  WARNING: FCV 78 open but cannot deliver flow at 3:55:10 hrs.
  WARNING: FCV 65 open but cannot deliver flow at 3:55:10 hrs.
  
  WARNING: FCV 76 open but cannot deliver flow at 3:55:12 hrs.
  WARNING: FCV 65 open but cannot deliver flow at 3:55:12 hrs.
  WARNING: FCV 3 open but cannot deliver flow at 3:55:12 hrs.
  
  WARNING: FCV 74 open but cannot deliver flow at 3:55:49 hrs.
  WARNING: FCV 3 open but cannot deliver flow at 3:55:49 hrs.
  
  WARNING: FCV 76 open but cannot deliver flow at 3:55:53 hrs.
  WARNING: FCV 3 open but cannot deliver flow at 3:55:53 hrs.
  
  WARNING: FCV 76 open but cannot deliver flow at 3:55:54 hrs.
  WARNING: FCV 74 open but cannot deliver flow at 3:55:54 hrs.
  WARNING: FCV 65 open but cannot deliver flow at 3:55:54 hrs.
  WARNING: FCV 3 open but cannot deliver flow at 3:55:54 hrs.
  
  WARNING: FCV 78 open but cannot deliver flow at 3:56:27 hrs.
  WARNING: FCV 3 open but cannot deliver flow at 3:56:27 hrs.
  
  WARNING: FCV 76 open but cannot deliver flow at 3:56:31 hrs.
  WARNING: FCV 65 open but cannot deliver flow at 3:56:31 hrs.
  WARNING: FCV 3 open but cannot deliver flow at 3:56:31 hrs.
  
  WARNING: FCV 78 open but cannot deliver flow at 3:56:32 hrs.
  WARNING: FCV 76 open but cannot deliver flow at 3:56:32 hrs.
  WARNING: FCV 65 open but cannot deliver flow at 3:56:32 hrs.
  WARNING: FCV 3 open but cannot deliver flow at 3:56:32 hrs.
  
  WARNING: FCV 78 open but cannot deliver flow at 3:56:34 hrs.
  WARNING: FCV 74 open but cannot deliver flow at 3:56:34 hrs.
  WARNING: FCV 65 open but cannot deliver flow at 3:56:34 hrs.
  WARNING: FCV 3 open but cannot deliver flow at 3:56:34 hrs.
  
  WARNING: FCV 76 open but cannot deliver flow at 4:00:00 hrs.
  WARNING: FCV 3 open but cannot deliver flow at 4:00:00 hrs.
  
  WARNING: FCV 78 open but cannot deliver flow at 4:00:33 hrs.
  WARNING: FCV 65 open but cannot deliver flow at 4:00:33 hrs.
  
  WARNING: FCV 76 open but cannot deliver flow at 4:00:41 hrs.
  WARNING: FCV 3 open but cannot deliver flow at 4:00:41 hrs.
  
  WARNING: FCV 78 open but cannot deliver flow at 4:00:44 hrs.
  WARNING: FCV 65 open but cannot deliver flow at 4:00:44 hrs.
  
  WARNING: FCV 76 open but cannot deliver flow at 4:00:45 hrs.
  WARNING: FCV 65 open but cannot deliver flow at 4:00:45 hrs.
  WARNING: FCV 3 open but cannot deliver flow at 4:00:45 hrs.
  
  WARNING: FCV 74 open but cannot deliver flow at 4:00:52 hrs.
  WARNING: FCV 3 open but cannot deliver flow at 4:00:52 hrs.
  
  WARNING: FCV 78 open but cannot deliver flow at 4:00:54 hrs.
  WARNING: FCV 76 open but cannot deliver flow at 4:00:54 hrs.
  WARNING: FCV 65 open but cannot deliver flow at 4:00:54 hrs.
  WARNING: FCV 3 open but cannot deliver flow at 4:00:54 hrs.
  
  WARNING: FCV 78 open but cannot deliver flow at 4:00:55 hrs.
  WARNING: FCV 76 open but cannot deliver flow at 4:00:55 hrs.
  WARNING: FCV 74 open but cannot deliver flow at 4:00:55 hrs.
  WARNING: FCV 65 open but cannot deliver flow at 4:00:55 hrs.
  WARNING: FCV 3 open but cannot deliver flow at 4:00:55 hrs.
  
  WARNING: FCV 40 open but cannot deliver flow at 4:09:31 hrs.
  WARNING: FCV 3 open but cannot deliver flow at 4:09:31 hrs.
  
  WARNING: FCV 76 open but cannot deliver flow at 4:11:39 hrs.
  WARNING: FCV 3 open but cannot deliver flow at 4:11:39 hrs.
  
  WARNING: FCV 78 open but cannot deliver flow at 4:12:14 hrs.
  WARNING: FCV 65 open but cannot deliver flow at 4:12:14 hrs.
  
  WARNING: FCV 76 open but cannot deliver flow at 4:12:23 hrs.
  WARNING: FCV 3 open but cannot deliver flow at 4:12:23 hrs.
  
  WARNING: FCV 78 open but cannot deliver flow at 4:12:26 hrs.
  WARNING: FCV 65 open but cannot deliver flow at 4:12:26 hrs.
  
  WARNING: FCV 76 open but cannot deliver flow at 4:12:27 hrs.
  WARNING: FCV 65 open but cannot deliver flow at 4:12:27 hrs.
  WARNING: FCV 3 open but cannot deliver flow at 4:12:27 hrs.
  
  WARNING: FCV 40 open but cannot deliver flow at 4:12:45 hrs.
  WARNING: FCV 3 open but cannot deliver flow at 4:12:45 hrs.
  
  WARNING: FCV 76 open but cannot deliver flow at 4:12:49 hrs.
  WARNING: FCV 3 open but cannot deliver flow at 4:12:49 hrs.
  
  WARNING: FCV 65 open but cannot deliver flow at 4:12:51 hrs.
  WARNING: FCV 40 open but cannot deliver flow at 4:12:51 hrs.
  WARNING: FCV 3 open but cannot deliver flow at 4:12:51 hrs.
  
  WARNING: FCV 78 open but cannot deliver flow at 4:13:26 hrs.
  WARNING: FCV 76 open but cannot deliver flow at 4:13:26 hrs.
  WARNING: FCV 3 open but cannot deliver flow at 4:13:26 hrs.
  
  WARNING: FCV 78 open but cannot deliver flow at 4:13:37 hrs.
  WARNING: FCV 65 open but cannot deliver flow at 4:13:37 hrs.
  
  WARNING: FCV 76 open but cannot deliver flow at 4:13:40 hrs.
  WARNING: FCV 3 open but cannot deliver flow at 4:13:40 hrs.
  
  WARNING: FCV 76 open but cannot deliver flow at 4:13:41 hrs.
  WARNING: FCV 65 open but cannot deliver flow at 4:13:41 hrs.
  WARNING: FCV 3 open but cannot deliver flow at 4:13:41 hrs.
  
  WARNING: FCV 78 open but cannot deliver flow at 4:13:44 hrs.
  WARNING: FCV 40 open but cannot deliver flow at 4:13:44 hrs.
  WARNING: FCV 3 open but cannot deliver flow at 4:13:44 hrs.
  
  WARNING: FCV 78 open but cannot deliver flow at 4:13:45 hrs.
  WARNING: FCV 76 open but cannot deliver flow at 4:13:45 hrs.
  WARNING: FCV 65 open but cannot deliver flow at 4:13:45 hrs.
  WARNING: FCV 40 open but cannot deliver flow at 4:13:45 hrs.
  WARNING: FCV 3 open but cannot deliver flow at 4:13:45 hrs.
  
  WARNING: FCV 74 open but cannot deliver flow at 4:13:50 hrs.
  WARNING: FCV 3 open but cannot deliver flow at 4:13:50 hrs.
  
  WARNING: FCV 76 open but cannot deliver flow at 4:13:51 hrs.
  WARNING: FCV 74 open but cannot deliver flow at 4:13:51 hrs.
  WARNING: FCV 65 open but cannot deliver flow at 4:13:51 hrs.
  WARNING: FCV 3 open but cannot deliver flow at 4:13:51 hrs.
  
  WARNING: FCV 78 open but cannot deliver flow at 4:13:53 hrs.
  WARNING: FCV 65 open but cannot deliver flow at 4:13:53 hrs.
  WARNING: FCV 40 open but cannot deliver flow at 4:13:53 hrs.
  WARNING: FCV 3 open but cannot deliver flow at 4:13:53 hrs.
  
  WARNING: FCV 76 open but cannot deliver flow at 4:13:55 hrs.
  WARNING: FCV 74 open but cannot deliver flow at 4:13:55 hrs.
  WARNING: FCV 3 open but cannot deliver flow at 4:13:55 hrs.
  
  WARNING: FCV 78 open but cannot deliver flow at 4:13:56 hrs.
  WARNING: FCV 76 open but cannot deliver flow at 4:13:56 hrs.
  WARNING: FCV 74 open but cannot deliver flow at 4:13:56 hrs.
  WARNING: FCV 65 open but cannot deliver flow at 4:13:56 hrs.
  WARNING: FCV 40 open but cannot deliver flow at 4:13:56 hrs.
  WARNING: FCV 3 open but cannot deliver flow at 4:13:56 hrs.
  
  WARNING: FCV 78 open but cannot deliver flow at 4:23:56 hrs.
  
  WARNING: FCV 76 open but cannot deliver flow at 4:26:25 hrs.
  WARNING: FCV 3 open but cannot deliver flow at 4:26:25 hrs.
  
  WARNING: FCV 78 open but cannot deliver flow at 4:27:05 hrs.
  WARNING: FCV 65 open but cannot deliver flow at 4:27:05 hrs.
  
  WARNING: FCV 76 open but cannot deliver flow at 4:27:15 hrs.
  WARNING: FCV 3 open but cannot deliver flow at 4:27:15 hrs.
  
  WARNING: FCV 78 open but cannot deliver flow at 4:27:18 hrs.
  WARNING: FCV 65 open but cannot deliver flow at 4:27:18 hrs.
  
  WARNING: FCV 76 open but cannot deliver flow at 4:27:19 hrs.
  WARNING: FCV 65 open but cannot deliver flow at 4:27:19 hrs.
  WARNING: FCV 3 open but cannot deliver flow at 4:27:19 hrs.
  
  WARNING: FCV 74 open but cannot deliver flow at 4:28:58 hrs.
  WARNING: FCV 3 open but cannot deliver flow at 4:28:58 hrs.
  
  WARNING: FCV 40 open but cannot deliver flow at 4:29:06 hrs.
  WARNING: FCV 3 open but cannot deliver flow at 4:29:06 hrs.
  
  WARNING: FCV 74 open but cannot deliver flow at 4:29:10 hrs.
  WARNING: FCV 3 open but cannot deliver flow at 4:29:10 hrs.
  
  WARNING: FCV 40 open but cannot deliver flow at 4:29:12 hrs.
  WARNING: FCV 3 open but cannot deliver flow at 4:29:12 hrs.
  
  WARNING: FCV 74 open but cannot deliver flow at 4:29:13 hrs.
  WARNING: FCV 40 open but cannot deliver flow at 4:29:13 hrs.
  WARNING: FCV 3 open but cannot deliver flow at 4:29:13 hrs.
  
  WARNING: FCV 76 open but cannot deliver flow at 4:29:23 hrs.
  WARNING: FCV 3 open but cannot deliver flow at 4:29:23 hrs.
  
  WARNING: FCV 74 open but cannot deliver flow at 4:29:28 hrs.
  WARNING: FCV 40 open but cannot deliver flow at 4:29:28 hrs.
  WARNING: FCV 3 open but cannot deliver flow at 4:29:28 hrs.
  
  WARNING: FCV 76 open but cannot deliver flow at 4:29:29 hrs.
  WARNING: FCV 74 open but cannot deliver flow at 4:29:29 hrs.
  WARNING: FCV 65 open but cannot deliver flow at 4:29:29 hrs.
  WARNING: FCV 40 open but cannot deliver flow at 4:29:29 hrs.
  WARNING: FCV 3 open but cannot deliver flow at 4:29:29 hrs.
  
  WARNING: FCV 78 open but cannot deliver flow at 4:30:45 hrs.
  WARNING: FCV 3 open but cannot deliver flow at 4:30:45 hrs.
  
  WARNING: FCV 76 open but cannot deliver flow at 4:31:04 hrs.
  WARNING: FCV 3 open but cannot deliver flow at 4:31:04 hrs.
  
  WARNING: FCV 78 open but cannot deliver flow at 4:31:09 hrs.
  WARNING: FCV 65 open but cannot deliver flow at 4:31:09 hrs.
  
  WARNING: FCV 76 open but cannot deliver flow at 4:31:10 hrs.
  WARNING: FCV 65 open but cannot deliver flow at 4:31:10 hrs.
  WARNING: FCV 3 open but cannot deliver flow at 4:31:10 hrs.
  
  WARNING: FCV 78 open but cannot deliver flow at 4:31:13 hrs.
  WARNING: FCV 3 open but cannot deliver flow at 4:31:13 hrs.
  
  WARNING: FCV 78 open but cannot deliver flow at 4:31:14 hrs.
  WARNING: FCV 76 open but cannot deliver flow at 4:31:14 hrs.
  WARNING: FCV 65 open but cannot deliver flow at 4:31:14 hrs.
  WARNING: FCV 3 open but cannot deliver flow at 4:31:14 hrs.
  
  WARNING: FCV 74 open but cannot deliver flow at 4:31:24 hrs.
  WARNING: FCV 40 open but cannot deliver flow at 4:31:24 hrs.
  WARNING: FCV 3 open but cannot deliver flow at 4:31:24 hrs.
  
  WARNING: FCV 76 open but cannot deliver flow at 4:31:26 hrs.
  WARNING: FCV 3 open but cannot deliver flow at 4:31:26 hrs.
  
  WARNING: FCV 76 open but cannot deliver flow at 4:31:27 hrs.
  WARNING: FCV 74 open but cannot deliver flow at 4:31:27 hrs.
  WARNING: FCV 65 open but cannot deliver flow at 4:31:27 hrs.
  WARNING: FCV 40 open but cannot deliver flow at 4:31:27 hrs.
  WARNING: FCV 3 open but cannot deliver flow at 4:31:27 hrs.
  
  WARNING: FCV 78 open but cannot deliver flow at 4:31:29 hrs.
  WARNING: FCV 65 open but cannot deliver flow at 4:31:29 hrs.
  WARNING: FCV 3 open but cannot deliver flow at 4:31:29 hrs.
  
  WARNING: FCV 78 open but cannot deliver flow at 4:31:30 hrs.
  WARNING: FCV 76 open but cannot deliver flow at 4:31:30 hrs.
  WARNING: FCV 74 open but cannot deliver flow at 4:31:30 hrs.
  WARNING: FCV 40 open but cannot deliver flow at 4:31:30 hrs.
  WARNING: FCV 3 open but cannot deliver flow at 4:31:30 hrs.
  
  WARNING: FCV 76 open but cannot deliver flow at 4:31:31 hrs.
  WARNING: FCV 74 open but cannot deliver flow at 4:31:31 hrs.
  WARNING: FCV 65 open but cannot deliver flow at 4:31:31 hrs.
  WARNING: FCV 40 open but cannot deliver flow at 4:31:31 hrs.
  WARNING: FCV 3 open but cannot deliver flow at 4:31:31 hrs.
  
  WARNING: FCV 78 open but cannot deliver flow at 4:31:32 hrs.
  WARNING: FCV 65 open but cannot deliver flow at 4:31:32 hrs.
  WARNING: FCV 3 open but cannot deliver flow at 4:31:32 hrs.
  
  WARNING: FCV 78 open but cannot deliver flow at 4:31:33 hrs.
  WARNING: FCV 76 open but cannot deliver flow at 4:31:33 hrs.
  WARNING: FCV 74 open but cannot deliver flow at 4:31:33 hrs.
  WARNING: FCV 65 open but cannot deliver flow at 4:31:33 hrs.
  WARNING: FCV 40 open but cannot deliver flow at 4:31:33 hrs.
  WARNING: FCV 3 open but cannot deliver flow at 4:31:33 hrs.
  
  WARNING: FCV 78 open but cannot deliver flow at 4:41:33 hrs.
  
  WARNING: FCV 76 open but cannot deliver flow at 4:44:02 hrs.
  WARNING: FCV 3 open but cannot deliver flow at 4:44:02 hrs.
  
  WARNING: FCV 78 open but cannot deliver flow at 4:44:43 hrs.
  WARNING: FCV 65 open but cannot deliver flow at 4:44:43 hrs.
  
  WARNING: FCV 76 open but cannot deliver flow at 4:44:53 hrs.
  WARNING: FCV 3 open but cannot deliver flow at 4:44:53 hrs.
  
  WARNING: FCV 78 open but cannot deliver flow at 4:44:56 hrs.
  WARNING: FCV 65 open but cannot deliver flow at 4:44:56 hrs.
  
  WARNING: FCV 76 open but cannot deliver flow at 4:44:57 hrs.
  WARNING: FCV 65 open but cannot deliver flow at 4:44:57 hrs.
  WARNING: FCV 3 open but cannot deliver flow at 4:44:57 hrs.
  
  WARNING: FCV 74 open but cannot deliver flow at 4:46:34 hrs.
  WARNING: FCV 3 open but cannot deliver flow at 4:46:34 hrs.
  
  WARNING: FCV 40 open but cannot deliver flow at 4:46:43 hrs.
  WARNING: FCV 3 open but cannot deliver flow at 4:46:43 hrs.
  
  WARNING: FCV 74 open but cannot deliver flow at 4:46:48 hrs.
  WARNING: FCV 3 open but cannot deliver flow at 4:46:48 hrs.
  
  WARNING: FCV 40 open but cannot deliver flow at 4:46:51 hrs.
  WARNING: FCV 3 open but cannot deliver flow at 4:46:51 hrs.
  
  WARNING: FCV 74 open but cannot deliver flow at 4:46:53 hrs.
  WARNING: FCV 3 open but cannot deliver flow at 4:46:53 hrs.
  
  WARNING: FCV 74 open but cannot deliver flow at 4:46:54 hrs.
  WARNING: FCV 40 open but cannot deliver flow at 4:46:54 hrs.
  WARNING: FCV 3 open but cannot deliver flow at 4:46:54 hrs.
  
  WARNING: FCV 76 open but cannot deliver flow at 4:46:58 hrs.
  WARNING: FCV 3 open but cannot deliver flow at 4:46:58 hrs.
  
  WARNING: FCV 74 open but cannot deliver flow at 4:47:00 hrs.
  WARNING: FCV 40 open but cannot deliver flow at 4:47:00 hrs.
  WARNING: FCV 3 open but cannot deliver flow at 4:47:00 hrs.
  
  WARNING: FCV 76 open but cannot deliver flow at 4:47:05 hrs.
  WARNING: FCV 65 open but cannot deliver flow at 4:47:05 hrs.
  WARNING: FCV 3 open but cannot deliver flow at 4:47:05 hrs.
  
  WARNING: FCV 74 open but cannot deliver flow at 4:47:08 hrs.
  WARNING: FCV 40 open but cannot deliver flow at 4:47:08 hrs.
  WARNING: FCV 3 open but cannot deliver flow at 4:47:08 hrs.
  
  WARNING: FCV 76 open but cannot deliver flow at 4:47:09 hrs.
  WARNING: FCV 74 open but cannot deliver flow at 4:47:09 hrs.
  WARNING: FCV 65 open but cannot deliver flow at 4:47:09 hrs.
  WARNING: FCV 40 open but cannot deliver flow at 4:47:09 hrs.
  WARNING: FCV 3 open but cannot deliver flow at 4:47:09 hrs.
  
  WARNING: FCV 78 open but cannot deliver flow at 4:48:00 hrs.
  WARNING: FCV 66 open but cannot deliver flow at 4:48:00 hrs.
  
  WARNING: FCV 76 open but cannot deliver flow at 4:48:13 hrs.
  WARNING: FCV 3 open but cannot deliver flow at 4:48:13 hrs.
  
  WARNING: FCV 78 open but cannot deliver flow at 4:48:16 hrs.
  WARNING: FCV 66 open but cannot deliver flow at 4:48:16 hrs.
  WARNING: FCV 65 open but cannot deliver flow at 4:48:16 hrs.
  
  WARNING: FCV 76 open but cannot deliver flow at 4:48:17 hrs.
  WARNING: FCV 66 open but cannot deliver flow at 4:48:17 hrs.
  WARNING: FCV 65 open but cannot deliver flow at 4:48:17 hrs.
  WARNING: FCV 3 open but cannot deliver flow at 4:48:17 hrs.
  
  WARNING: FCV 74 open but cannot deliver flow at 4:48:26 hrs.
  WARNING: FCV 40 open but cannot deliver flow at 4:48:26 hrs.
  WARNING: FCV 3 open but cannot deliver flow at 4:48:26 hrs.
  
  WARNING: FCV 76 open but cannot deliver flow at 4:48:28 hrs.
  WARNING: FCV 66 open but cannot deliver flow at 4:48:28 hrs.
  WARNING: FCV 3 open but cannot deliver flow at 4:48:28 hrs.
  
  WARNING: FCV 76 open but cannot deliver flow at 4:48:29 hrs.
  WARNING: FCV 74 open but cannot deliver flow at 4:48:29 hrs.
  WARNING: FCV 66 open but cannot deliver flow at 4:48:29 hrs.
  WARNING: FCV 65 open but cannot deliver flow at 4:48:29 hrs.
  WARNING: FCV 40 open but cannot deliver flow at 4:48:29 hrs.
  WARNING: FCV 3 open but cannot deliver flow at 4:48:29 hrs.
  
  WARNING: FCV 78 open but cannot deliver flow at 4:48:36 hrs.
  WARNING: FCV 3 open but cannot deliver flow at 4:48:36 hrs.
  
  WARNING: FCV 76 open but cannot deliver flow at 4:48:38 hrs.
  WARNING: FCV 66 open but cannot deliver flow at 4:48:38 hrs.
  WARNING: FCV 65 open but cannot deliver flow at 4:48:38 hrs.
  WARNING: FCV 3 open but cannot deliver flow at 4:48:38 hrs.
  
  WARNING: FCV 78 open but cannot deliver flow at 4:48:39 hrs.
  WARNING: FCV 76 open but cannot deliver flow at 4:48:39 hrs.
  WARNING: FCV 74 open but cannot deliver flow at 4:48:39 hrs.
  WARNING: FCV 66 open but cannot deliver flow at 4:48:39 hrs.
  WARNING: FCV 65 open but cannot deliver flow at 4:48:39 hrs.
  WARNING: FCV 40 open but cannot deliver flow at 4:48:39 hrs.
  WARNING: FCV 3 open but cannot deliver flow at 4:48:39 hrs.
  
  WARNING: FCV 78 open but cannot deliver flow at 4:57:16 hrs.
  
  WARNING: FCV 76 open but cannot deliver flow at 4:59:24 hrs.
  WARNING: FCV 3 open but cannot deliver flow at 4:59:24 hrs.
  
  WARNING: FCV 78 open but cannot deliver flow at 4:59:43 hrs.
  WARNING: FCV 66 open but cannot deliver flow at 4:59:43 hrs.
  
  WARNING: FCV 76 open but cannot deliver flow at 4:59:48 hrs.
  WARNING: FCV 3 open but cannot deliver flow at 4:59:48 hrs.
  
  WARNING: FCV 76 open but cannot deliver flow at 4:59:49 hrs.
  WARNING: FCV 66 open but cannot deliver flow at 4:59:49 hrs.
  WARNING: FCV 3 open but cannot deliver flow at 4:59:49 hrs.
  
  WARNING: FCV 78 open but cannot deliver flow at 5:00:00 hrs.
  WARNING: FCV 65 open but cannot deliver flow at 5:00:00 hrs.
  
  WARNING: FCV 76 open but cannot deliver flow at 5:00:05 hrs.
  WARNING: FCV 66 open but cannot deliver flow at 5:00:05 hrs.
  WARNING: FCV 3 open but cannot deliver flow at 5:00:05 hrs.
  
  WARNING: FCV 78 open but cannot deliver flow at 5:00:12 hrs.
  WARNING: FCV 65 open but cannot deliver flow at 5:00:12 hrs.
  
  WARNING: FCV 76 open but cannot deliver flow at 5:00:19 hrs.
  WARNING: FCV 3 open but cannot deliver flow at 5:00:19 hrs.
  
  WARNING: FCV 78 open but cannot deliver flow at 5:00:21 hrs.
  WARNING: FCV 66 open but cannot deliver flow at 5:00:21 hrs.
  
  WARNING: FCV 76 open but cannot deliver flow at 5:00:23 hrs.
  WARNING: FCV 3 open but cannot deliver flow at 5:00:23 hrs.
  
  WARNING: FCV 78 open but cannot deliver flow at 5:00:25 hrs.
  WARNING: FCV 66 open but cannot deliver flow at 5:00:25 hrs.
  
  WARNING: FCV 76 open but cannot deliver flow at 5:00:27 hrs.
  WARNING: FCV 3 open but cannot deliver flow at 5:00:27 hrs.
  
  WARNING: FCV 78 open but cannot deliver flow at 5:00:29 hrs.
  WARNING: FCV 66 open but cannot deliver flow at 5:00:29 hrs.
  WARNING: FCV 65 open but cannot deliver flow at 5:00:29 hrs.
  
  WARNING: FCV 76 open but cannot deliver flow at 5:00:31 hrs.
  WARNING: FCV 3 open but cannot deliver flow at 5:00:31 hrs.
  
  WARNING: FCV 78 open but cannot deliver flow at 5:00:33 hrs.
  WARNING: FCV 66 open but cannot deliver flow at 5:00:33 hrs.
  WARNING: FCV 65 open but cannot deliver flow at 5:00:33 hrs.
  
  WARNING: FCV 76 open but cannot deliver flow at 5:00:35 hrs.
  WARNING: FCV 3 open but cannot deliver flow at 5:00:35 hrs.
  
  WARNING: FCV 78 open but cannot deliver flow at 5:00:37 hrs.
  WARNING: FCV 66 open but cannot deliver flow at 5:00:37 hrs.
  WARNING: FCV 65 open but cannot deliver flow at 5:00:37 hrs.
  
  WARNING: FCV 76 open but cannot deliver flow at 5:00:39 hrs.
  WARNING: FCV 3 open but cannot deliver flow at 5:00:39 hrs.
  
  WARNING: FCV 78 open but cannot deliver flow at 5:00:41 hrs.
  WARNING: FCV 66 open but cannot deliver flow at 5:00:41 hrs.
  WARNING: FCV 65 open but cannot deliver flow at 5:00:41 hrs.
  
  WARNING: FCV 76 open but cannot deliver flow at 5:00:43 hrs.
  WARNING: FCV 3 open but cannot deliver flow at 5:00:43 hrs.
  
  WARNING: FCV 78 open but cannot deliver flow at 5:00:45 hrs.
  WARNING: FCV 66 open but cannot deliver flow at 5:00:45 hrs.
  WARNING: FCV 65 open but cannot deliver flow at 5:00:45 hrs.
  
  WARNING: FCV 76 open but cannot deliver flow at 5:00:47 hrs.
  WARNING: FCV 3 open but cannot deliver flow at 5:00:47 hrs.
  
  WARNING: FCV 78 open but cannot deliver flow at 5:00:49 hrs.
  WARNING: FCV 66 open but cannot deliver flow at 5:00:49 hrs.
  WARNING: FCV 65 open but cannot deliver flow at 5:00:49 hrs.
  
  WARNING: FCV 76 open but cannot deliver flow at 5:00:51 hrs.
  WARNING: FCV 3 open but cannot deliver flow at 5:00:51 hrs.
  
  WARNING: FCV 78 open but cannot deliver flow at 5:00:53 hrs.
  WARNING: FCV 66 open but cannot deliver flow at 5:00:53 hrs.
  WARNING: FCV 65 open but cannot deliver flow at 5:00:53 hrs.
  
  WARNING: FCV 76 open but cannot deliver flow at 5:00:55 hrs.
  WARNING: FCV 3 open but cannot deliver flow at 5:00:55 hrs.
  
  WARNING: FCV 78 open but cannot deliver flow at 5:00:57 hrs.
  WARNING: FCV 66 open but cannot deliver flow at 5:00:57 hrs.
  WARNING: FCV 65 open but cannot deliver flow at 5:00:57 hrs.
  
  WARNING: FCV 76 open but cannot deliver flow at 5:00:59 hrs.
  WARNING: FCV 3 open but cannot deliver flow at 5:00:59 hrs.
  
  WARNING: FCV 78 open but cannot deliver flow at 5:01:01 hrs.
  WARNING: FCV 66 open but cannot deliver flow at 5:01:01 hrs.
  WARNING: FCV 65 open but cannot deliver flow at 5:01:01 hrs.
  
  WARNING: FCV 76 open but cannot deliver flow at 5:01:03 hrs.
  WARNING: FCV 3 open but cannot deliver flow at 5:01:03 hrs.
  
  WARNING: FCV 78 open but cannot deliver flow at 5:01:05 hrs.
  WARNING: FCV 66 open but cannot deliver flow at 5:01:05 hrs.
  WARNING: FCV 65 open but cannot deliver flow at 5:01:05 hrs.
  
  WARNING: FCV 76 open but cannot deliver flow at 5:01:07 hrs.
  WARNING: FCV 3 open but cannot deliver flow at 5:01:07 hrs.
  
  WARNING: FCV 78 open but cannot deliver flow at 5:01:09 hrs.
  WARNING: FCV 66 open but cannot deliver flow at 5:01:09 hrs.
  WARNING: FCV 65 open but cannot deliver flow at 5:01:09 hrs.
  
  WARNING: FCV 76 open but cannot deliver flow at 5:01:11 hrs.
  WARNING: FCV 3 open but cannot deliver flow at 5:01:11 hrs.
  
  WARNING: FCV 78 open but cannot deliver flow at 5:01:13 hrs.
  WARNING: FCV 66 open but cannot deliver flow at 5:01:13 hrs.
  WARNING: FCV 65 open but cannot deliver flow at 5:01:13 hrs.
  
  WARNING: FCV 76 open but cannot deliver flow at 5:01:15 hrs.
  WARNING: FCV 3 open but cannot deliver flow at 5:01:15 hrs.
  
  WARNING: FCV 78 open but cannot deliver flow at 5:01:17 hrs.
  WARNING: FCV 66 open but cannot deliver flow at 5:01:17 hrs.
  WARNING: FCV 65 open but cannot deliver flow at 5:01:17 hrs.
  
  WARNING: FCV 76 open but cannot deliver flow at 5:01:19 hrs.
  WARNING: FCV 3 open but cannot deliver flow at 5:01:19 hrs.
  
  WARNING: FCV 78 open but cannot deliver flow at 5:01:21 hrs.
  WARNING: FCV 66 open but cannot deliver flow at 5:01:21 hrs.
  WARNING: FCV 65 open but cannot deliver flow at 5:01:21 hrs.
  
  WARNING: FCV 76 open but cannot deliver flow at 5:01:23 hrs.
  WARNING: FCV 3 open but cannot deliver flow at 5:01:23 hrs.
  
  WARNING: FCV 78 open but cannot deliver flow at 5:01:25 hrs.
  WARNING: FCV 66 open but cannot deliver flow at 5:01:25 hrs.
  WARNING: FCV 65 open but cannot deliver flow at 5:01:25 hrs.
  
  WARNING: FCV 76 open but cannot deliver flow at 5:01:27 hrs.
  WARNING: FCV 3 open but cannot deliver flow at 5:01:27 hrs.
  
  WARNING: FCV 78 open but cannot deliver flow at 5:01:29 hrs.
  WARNING: FCV 66 open but cannot deliver flow at 5:01:29 hrs.
  WARNING: FCV 65 open but cannot deliver flow at 5:01:29 hrs.
  
  WARNING: FCV 76 open but cannot deliver flow at 5:01:31 hrs.
  WARNING: FCV 3 open but cannot deliver flow at 5:01:31 hrs.
  
  WARNING: FCV 78 open but cannot deliver flow at 5:01:33 hrs.
  WARNING: FCV 66 open but cannot deliver flow at 5:01:33 hrs.
  WARNING: FCV 65 open but cannot deliver flow at 5:01:33 hrs.
  
  WARNING: FCV 76 open but cannot deliver flow at 5:01:35 hrs.
  WARNING: FCV 3 open but cannot deliver flow at 5:01:35 hrs.
  
  WARNING: FCV 78 open but cannot deliver flow at 5:01:37 hrs.
  WARNING: FCV 66 open but cannot deliver flow at 5:01:37 hrs.
  WARNING: FCV 65 open but cannot deliver flow at 5:01:37 hrs.
  
  WARNING: FCV 76 open but cannot deliver flow at 5:01:39 hrs.
  WARNING: FCV 3 open but cannot deliver flow at 5:01:39 hrs.
  
  WARNING: FCV 78 open but cannot deliver flow at 5:01:41 hrs.
  WARNING: FCV 66 open but cannot deliver flow at 5:01:41 hrs.
  WARNING: FCV 65 open but cannot deliver flow at 5:01:41 hrs.
  
  WARNING: FCV 76 open but cannot deliver flow at 5:01:43 hrs.
  WARNING: FCV 3 open but cannot deliver flow at 5:01:43 hrs.
  
  WARNING: FCV 78 open but cannot deliver flow at 5:01:45 hrs.
  WARNING: FCV 66 open but cannot deliver flow at 5:01:45 hrs.
  WARNING: FCV 65 open but cannot deliver flow at 5:01:45 hrs.
  
  WARNING: FCV 76 open but cannot deliver flow at 5:01:47 hrs.
  WARNING: FCV 3 open but cannot deliver flow at 5:01:47 hrs.
  
  WARNING: FCV 78 open but cannot deliver flow at 5:01:49 hrs.
  WARNING: FCV 66 open but cannot deliver flow at 5:01:49 hrs.
  WARNING: FCV 65 open but cannot deliver flow at 5:01:49 hrs.
  
  WARNING: FCV 76 open but cannot deliver flow at 5:01:51 hrs.
  WARNING: FCV 3 open but cannot deliver flow at 5:01:51 hrs.
  
  WARNING: FCV 78 open but cannot deliver flow at 5:01:53 hrs.
  WARNING: FCV 66 open but cannot deliver flow at 5:01:53 hrs.
  WARNING: FCV 65 open but cannot deliver flow at 5:01:53 hrs.
  
  WARNING: FCV 76 open but cannot deliver flow at 5:01:55 hrs.
  WARNING: FCV 3 open but cannot deliver flow at 5:01:55 hrs.
  
  WARNING: FCV 78 open but cannot deliver flow at 5:01:57 hrs.
  WARNING: FCV 66 open but cannot deliver flow at 5:01:57 hrs.
  WARNING: FCV 65 open but cannot deliver flow at 5:01:57 hrs.
  
  WARNING: FCV 76 open but cannot deliver flow at 5:01:59 hrs.
  WARNING: FCV 3 open but cannot deliver flow at 5:01:59 hrs.
  
  WARNING: FCV 78 open but cannot deliver flow at 5:02:01 hrs.
  WARNING: FCV 66 open but cannot deliver flow at 5:02:01 hrs.
  WARNING: FCV 65 open but cannot deliver flow at 5:02:01 hrs.
  
  WARNING: FCV 76 open but cannot deliver flow at 5:02:03 hrs.
  WARNING: FCV 3 open but cannot deliver flow at 5:02:03 hrs.
  
  WARNING: FCV 78 open but cannot deliver flow at 5:02:05 hrs.
  WARNING: FCV 66 open but cannot deliver flow at 5:02:05 hrs.
  WARNING: FCV 65 open but cannot deliver flow at 5:02:05 hrs.
  
  WARNING: FCV 76 open but cannot deliver flow at 5:02:07 hrs.
  WARNING: FCV 3 open but cannot deliver flow at 5:02:07 hrs.
  
  WARNING: FCV 78 open but cannot deliver flow at 5:02:09 hrs.
  WARNING: FCV 66 open but cannot deliver flow at 5:02:09 hrs.
  WARNING: FCV 65 open but cannot deliver flow at 5:02:09 hrs.
  
  WARNING: FCV 76 open but cannot deliver flow at 5:02:11 hrs.
  WARNING: FCV 3 open but cannot deliver flow at 5:02:11 hrs.
  
  WARNING: FCV 78 open but cannot deliver flow at 5:02:13 hrs.
  WARNING: FCV 66 open but cannot deliver flow at 5:02:13 hrs.
  WARNING: FCV 65 open but cannot deliver flow at 5:02:13 hrs.
  
  WARNING: FCV 76 open but cannot deliver flow at 5:02:15 hrs.
  WARNING: FCV 3 open but cannot deliver flow at 5:02:15 hrs.
  
  WARNING: FCV 78 open but cannot deliver flow at 5:02:17 hrs.
  WARNING: FCV 66 open but cannot deliver flow at 5:02:17 hrs.
  WARNING: FCV 65 open but cannot deliver flow at 5:02:17 hrs.
  
  WARNING: FCV 76 open but cannot deliver flow at 5:02:19 hrs.
  WARNING: FCV 3 open but cannot deliver flow at 5:02:19 hrs.
  
  WARNING: FCV 78 open but cannot deliver flow at 5:02:21 hrs.
  WARNING: FCV 66 open but cannot deliver flow at 5:02:21 hrs.
  WARNING: FCV 65 open but cannot deliver flow at 5:02:21 hrs.
  
  WARNING: FCV 76 open but cannot deliver flow at 5:02:23 hrs.
  WARNING: FCV 3 open but cannot deliver flow at 5:02:23 hrs.
  
  WARNING: FCV 78 open but cannot deliver flow at 5:02:25 hrs.
  WARNING: FCV 66 open but cannot deliver flow at 5:02:25 hrs.
  WARNING: FCV 65 open but cannot deliver flow at 5:02:25 hrs.
  
  WARNING: FCV 76 open but cannot deliver flow at 5:02:27 hrs.
  WARNING: FCV 3 open but cannot deliver flow at 5:02:27 hrs.
  
  WARNING: FCV 78 open but cannot deliver flow at 5:02:29 hrs.
  WARNING: FCV 66 open but cannot deliver flow at 5:02:29 hrs.
  WARNING: FCV 65 open but cannot deliver flow at 5:02:29 hrs.
  
  WARNING: FCV 76 open but cannot deliver flow at 5:02:31 hrs.
  WARNING: FCV 3 open but cannot deliver flow at 5:02:31 hrs.
  
  WARNING: FCV 78 open but cannot deliver flow at 5:02:33 hrs.
  WARNING: FCV 66 open but cannot deliver flow at 5:02:33 hrs.
  WARNING: FCV 65 open but cannot deliver flow at 5:02:33 hrs.
  
  WARNING: FCV 76 open but cannot deliver flow at 5:02:35 hrs.
  WARNING: FCV 3 open but cannot deliver flow at 5:02:35 hrs.
  
  WARNING: FCV 78 open but cannot deliver flow at 5:02:37 hrs.
  WARNING: FCV 66 open but cannot deliver flow at 5:02:37 hrs.
  WARNING: FCV 65 open but cannot deliver flow at 5:02:37 hrs.
  
  WARNING: FCV 76 open but cannot deliver flow at 5:02:39 hrs.
  WARNING: FCV 3 open but cannot deliver flow at 5:02:39 hrs.
  
  WARNING: FCV 78 open but cannot deliver flow at 5:02:41 hrs.
  WARNING: FCV 66 open but cannot deliver flow at 5:02:41 hrs.
  WARNING: FCV 65 open but cannot deliver flow at 5:02:41 hrs.
  
  WARNING: FCV 76 open but cannot deliver flow at 5:02:43 hrs.
  WARNING: FCV 3 open but cannot deliver flow at 5:02:43 hrs.
  
  WARNING: FCV 78 open but cannot deliver flow at 5:02:45 hrs.
  WARNING: FCV 66 open but cannot deliver flow at 5:02:45 hrs.
  WARNING: FCV 65 open but cannot deliver flow at 5:02:45 hrs.
  
  WARNING: FCV 76 open but cannot deliver flow at 5:02:47 hrs.
  WARNING: FCV 3 open but cannot deliver flow at 5:02:47 hrs.
  
  WARNING: FCV 78 open but cannot deliver flow at 5:02:49 hrs.
  WARNING: FCV 66 open but cannot deliver flow at 5:02:49 hrs.
  WARNING: FCV 65 open but cannot deliver flow at 5:02:49 hrs.
  
  WARNING: FCV 76 open but cannot deliver flow at 5:02:51 hrs.
  WARNING: FCV 3 open but cannot deliver flow at 5:02:51 hrs.
  
  WARNING: FCV 78 open but cannot deliver flow at 5:02:53 hrs.
  WARNING: FCV 66 open but cannot deliver flow at 5:02:53 hrs.
  WARNING: FCV 65 open but cannot deliver flow at 5:02:53 hrs.
  
  WARNING: FCV 76 open but cannot deliver flow at 5:02:55 hrs.
  WARNING: FCV 3 open but cannot deliver flow at 5:02:55 hrs.
  
  WARNING: FCV 78 open but cannot deliver flow at 5:02:57 hrs.
  WARNING: FCV 66 open but cannot deliver flow at 5:02:57 hrs.
  WARNING: FCV 65 open but cannot deliver flow at 5:02:57 hrs.
  
  WARNING: FCV 76 open but cannot deliver flow at 5:02:59 hrs.
  WARNING: FCV 3 open but cannot deliver flow at 5:02:59 hrs.
  
  WARNING: FCV 78 open but cannot deliver flow at 5:03:01 hrs.
  WARNING: FCV 66 open but cannot deliver flow at 5:03:01 hrs.
  WARNING: FCV 65 open but cannot deliver flow at 5:03:01 hrs.
  
  WARNING: FCV 76 open but cannot deliver flow at 5:03:03 hrs.
  WARNING: FCV 3 open but cannot deliver flow at 5:03:03 hrs.
  
  WARNING: FCV 78 open but cannot deliver flow at 5:03:05 hrs.
  WARNING: FCV 66 open but cannot deliver flow at 5:03:05 hrs.
  WARNING: FCV 65 open but cannot deliver flow at 5:03:05 hrs.
  
  WARNING: FCV 76 open but cannot deliver flow at 5:03:07 hrs.
  WARNING: FCV 3 open but cannot deliver flow at 5:03:07 hrs.
  
  WARNING: FCV 78 open but cannot deliver flow at 5:03:09 hrs.
  WARNING: FCV 66 open but cannot deliver flow at 5:03:09 hrs.
  WARNING: FCV 65 open but cannot deliver flow at 5:03:09 hrs.
  
  WARNING: FCV 76 open but cannot deliver flow at 5:03:11 hrs.
  WARNING: FCV 3 open but cannot deliver flow at 5:03:11 hrs.
  
  WARNING: FCV 78 open but cannot deliver flow at 5:03:13 hrs.
  WARNING: FCV 66 open but cannot deliver flow at 5:03:13 hrs.
  WARNING: FCV 65 open but cannot deliver flow at 5:03:13 hrs.
  
  WARNING: FCV 76 open but cannot deliver flow at 5:03:15 hrs.
  WARNING: FCV 3 open but cannot deliver flow at 5:03:15 hrs.
  
  WARNING: FCV 78 open but cannot deliver flow at 5:03:17 hrs.
  WARNING: FCV 66 open but cannot deliver flow at 5:03:17 hrs.
  WARNING: FCV 65 open but cannot deliver flow at 5:03:17 hrs.
  
  WARNING: FCV 76 open but cannot deliver flow at 5:03:19 hrs.
  WARNING: FCV 3 open but cannot deliver flow at 5:03:19 hrs.
  
  WARNING: FCV 78 open but cannot deliver flow at 5:03:21 hrs.
  WARNING: FCV 66 open but cannot deliver flow at 5:03:21 hrs.
  WARNING: FCV 65 open but cannot deliver flow at 5:03:21 hrs.
  
  WARNING: FCV 76 open but cannot deliver flow at 5:03:23 hrs.
  WARNING: FCV 3 open but cannot deliver flow at 5:03:23 hrs.
  
  WARNING: FCV 78 open but cannot deliver flow at 5:03:25 hrs.
  WARNING: FCV 66 open but cannot deliver flow at 5:03:25 hrs.
  WARNING: FCV 65 open but cannot deliver flow at 5:03:25 hrs.
  
  WARNING: FCV 76 open but cannot deliver flow at 5:03:27 hrs.
  WARNING: FCV 3 open but cannot deliver flow at 5:03:27 hrs.
  
  WARNING: FCV 78 open but cannot deliver flow at 5:03:29 hrs.
  WARNING: FCV 66 open but cannot deliver flow at 5:03:29 hrs.
  WARNING: FCV 65 open but cannot deliver flow at 5:03:29 hrs.
  
  WARNING: FCV 76 open but cannot deliver flow at 5:03:31 hrs.
  WARNING: FCV 3 open but cannot deliver flow at 5:03:31 hrs.
  
  WARNING: FCV 78 open but cannot deliver flow at 5:03:33 hrs.
  WARNING: FCV 66 open but cannot deliver flow at 5:03:33 hrs.
  WARNING: FCV 65 open but cannot deliver flow at 5:03:33 hrs.
  
  WARNING: FCV 76 open but cannot deliver flow at 5:03:35 hrs.
  WARNING: FCV 3 open but cannot deliver flow at 5:03:35 hrs.
  
  WARNING: FCV 78 open but cannot deliver flow at 5:03:37 hrs.
  WARNING: FCV 66 open but cannot deliver flow at 5:03:37 hrs.
  WARNING: FCV 65 open but cannot deliver flow at 5:03:37 hrs.
  
  WARNING: FCV 76 open but cannot deliver flow at 5:03:39 hrs.
  WARNING: FCV 3 open but cannot deliver flow at 5:03:39 hrs.
  
  WARNING: FCV 78 open but cannot deliver flow at 5:03:41 hrs.
  WARNING: FCV 66 open but cannot deliver flow at 5:03:41 hrs.
  WARNING: FCV 65 open but cannot deliver flow at 5:03:41 hrs.
  
  WARNING: FCV 76 open but cannot deliver flow at 5:03:43 hrs.
  WARNING: FCV 3 open but cannot deliver flow at 5:03:43 hrs.
  
  WARNING: FCV 78 open but cannot deliver flow at 5:03:45 hrs.
  WARNING: FCV 66 open but cannot deliver flow at 5:03:45 hrs.
  WARNING: FCV 65 open but cannot deliver flow at 5:03:45 hrs.
  
  WARNING: FCV 76 open but cannot deliver flow at 5:03:47 hrs.
  WARNING: FCV 3 open but cannot deliver flow at 5:03:47 hrs.
  
  WARNING: FCV 78 open but cannot deliver flow at 5:03:49 hrs.
  WARNING: FCV 66 open but cannot deliver flow at 5:03:49 hrs.
  WARNING: FCV 65 open but cannot deliver flow at 5:03:49 hrs.
  
  WARNING: FCV 76 open but cannot deliver flow at 5:03:51 hrs.
  WARNING: FCV 3 open but cannot deliver flow at 5:03:51 hrs.
  
  WARNING: FCV 78 open but cannot deliver flow at 5:03:53 hrs.
  WARNING: FCV 66 open but cannot deliver flow at 5:03:53 hrs.
  WARNING: FCV 65 open but cannot deliver flow at 5:03:53 hrs.
  
  WARNING: FCV 76 open but cannot deliver flow at 5:03:55 hrs.
  WARNING: FCV 3 open but cannot deliver flow at 5:03:55 hrs.
  
  WARNING: FCV 78 open but cannot deliver flow at 5:03:57 hrs.
  WARNING: FCV 66 open but cannot deliver flow at 5:03:57 hrs.
  WARNING: FCV 65 open but cannot deliver flow at 5:03:57 hrs.
  
  WARNING: FCV 76 open but cannot deliver flow at 5:03:59 hrs.
  WARNING: FCV 3 open but cannot deliver flow at 5:03:59 hrs.
  
  WARNING: FCV 78 open but cannot deliver flow at 5:04:01 hrs.
  WARNING: FCV 66 open but cannot deliver flow at 5:04:01 hrs.
  WARNING: FCV 65 open but cannot deliver flow at 5:04:01 hrs.
  
  WARNING: FCV 76 open but cannot deliver flow at 5:04:03 hrs.
  WARNING: FCV 3 open but cannot deliver flow at 5:04:03 hrs.
  
  WARNING: FCV 78 open but cannot deliver flow at 5:04:05 hrs.
  WARNING: FCV 66 open but cannot deliver flow at 5:04:05 hrs.
  WARNING: FCV 65 open but cannot deliver flow at 5:04:05 hrs.
  
  WARNING: FCV 76 open but cannot deliver flow at 5:04:07 hrs.
  WARNING: FCV 3 open but cannot deliver flow at 5:04:07 hrs.
  
  WARNING: FCV 78 open but cannot deliver flow at 5:04:09 hrs.
  WARNING: FCV 66 open but cannot deliver flow at 5:04:09 hrs.
  WARNING: FCV 65 open but cannot deliver flow at 5:04:09 hrs.
  
  WARNING: FCV 76 open but cannot deliver flow at 5:04:11 hrs.
  WARNING: FCV 3 open but cannot deliver flow at 5:04:11 hrs.
  
  WARNING: FCV 78 open but cannot deliver flow at 5:04:13 hrs.
  WARNING: FCV 66 open but cannot deliver flow at 5:04:13 hrs.
  WARNING: FCV 65 open but cannot deliver flow at 5:04:13 hrs.
  
  WARNING: FCV 76 open but cannot deliver flow at 5:04:15 hrs.
  WARNING: FCV 3 open but cannot deliver flow at 5:04:15 hrs.
  
  WARNING: FCV 78 open but cannot deliver flow at 5:04:17 hrs.
  WARNING: FCV 66 open but cannot deliver flow at 5:04:17 hrs.
  WARNING: FCV 65 open but cannot deliver flow at 5:04:17 hrs.
  
  WARNING: FCV 76 open but cannot deliver flow at 5:04:19 hrs.
  WARNING: FCV 3 open but cannot deliver flow at 5:04:19 hrs.
  
  WARNING: FCV 78 open but cannot deliver flow at 5:04:21 hrs.
  WARNING: FCV 66 open but cannot deliver flow at 5:04:21 hrs.
  WARNING: FCV 65 open but cannot deliver flow at 5:04:21 hrs.
  
  WARNING: FCV 76 open but cannot deliver flow at 5:04:23 hrs.
  WARNING: FCV 3 open but cannot deliver flow at 5:04:23 hrs.
  
  WARNING: FCV 78 open but cannot deliver flow at 5:04:25 hrs.
  WARNING: FCV 66 open but cannot deliver flow at 5:04:25 hrs.
  WARNING: FCV 65 open but cannot deliver flow at 5:04:25 hrs.
  
  WARNING: FCV 76 open but cannot deliver flow at 5:04:27 hrs.
  WARNING: FCV 3 open but cannot deliver flow at 5:04:27 hrs.
  
  WARNING: FCV 78 open but cannot deliver flow at 5:04:29 hrs.
  WARNING: FCV 66 open but cannot deliver flow at 5:04:29 hrs.
  WARNING: FCV 65 open but cannot deliver flow at 5:04:29 hrs.
  
  WARNING: FCV 76 open but cannot deliver flow at 5:04:31 hrs.
  WARNING: FCV 3 open but cannot deliver flow at 5:04:31 hrs.
  
  WARNING: FCV 78 open but cannot deliver flow at 5:04:33 hrs.
  WARNING: FCV 66 open but cannot deliver flow at 5:04:33 hrs.
  WARNING: FCV 65 open but cannot deliver flow at 5:04:33 hrs.
  
  WARNING: FCV 76 open but cannot deliver flow at 5:04:35 hrs.
  WARNING: FCV 3 open but cannot deliver flow at 5:04:35 hrs.
  
  WARNING: FCV 78 open but cannot deliver flow at 5:04:37 hrs.
  WARNING: FCV 66 open but cannot deliver flow at 5:04:37 hrs.
  WARNING: FCV 65 open but cannot deliver flow at 5:04:37 hrs.
  
  WARNING: FCV 76 open but cannot deliver flow at 5:04:39 hrs.
  WARNING: FCV 3 open but cannot deliver flow at 5:04:39 hrs.
  
  WARNING: FCV 78 open but cannot deliver flow at 5:04:41 hrs.
  WARNING: FCV 66 open but cannot deliver flow at 5:04:41 hrs.
  WARNING: FCV 65 open but cannot deliver flow at 5:04:41 hrs.
  
  WARNING: FCV 76 open but cannot deliver flow at 5:04:43 hrs.
  WARNING: FCV 3 open but cannot deliver flow at 5:04:43 hrs.
  
  WARNING: FCV 78 open but cannot deliver flow at 5:04:45 hrs.
  WARNING: FCV 66 open but cannot deliver flow at 5:04:45 hrs.
  WARNING: FCV 65 open but cannot deliver flow at 5:04:45 hrs.
  
  WARNING: FCV 76 open but cannot deliver flow at 5:04:47 hrs.
  WARNING: FCV 3 open but cannot deliver flow at 5:04:47 hrs.
  
  WARNING: FCV 78 open but cannot deliver flow at 5:04:49 hrs.
  WARNING: FCV 66 open but cannot deliver flow at 5:04:49 hrs.
  WARNING: FCV 65 open but cannot deliver flow at 5:04:49 hrs.
  
  WARNING: FCV 76 open but cannot deliver flow at 5:04:51 hrs.
  WARNING: FCV 3 open but cannot deliver flow at 5:04:51 hrs.
  
  WARNING: FCV 78 open but cannot deliver flow at 5:04:53 hrs.
  WARNING: FCV 66 open but cannot deliver flow at 5:04:53 hrs.
  WARNING: FCV 65 open but cannot deliver flow at 5:04:53 hrs.
  
  WARNING: FCV 76 open but cannot deliver flow at 5:04:55 hrs.
  WARNING: FCV 3 open but cannot deliver flow at 5:04:55 hrs.
  
  WARNING: FCV 78 open but cannot deliver flow at 5:04:57 hrs.
  WARNING: FCV 66 open but cannot deliver flow at 5:04:57 hrs.
  WARNING: FCV 65 open but cannot deliver flow at 5:04:57 hrs.
  
  WARNING: FCV 76 open but cannot deliver flow at 5:04:59 hrs.
  WARNING: FCV 3 open but cannot deliver flow at 5:04:59 hrs.
  
  WARNING: FCV 78 open but cannot deliver flow at 5:05:01 hrs.
  WARNING: FCV 66 open but cannot deliver flow at 5:05:01 hrs.
  WARNING: FCV 65 open but cannot deliver flow at 5:05:01 hrs.
  
  WARNING: FCV 76 open but cannot deliver flow at 5:05:03 hrs.
  WARNING: FCV 3 open but cannot deliver flow at 5:05:03 hrs.
  
  WARNING: FCV 78 open but cannot deliver flow at 5:05:05 hrs.
  WARNING: FCV 66 open but cannot deliver flow at 5:05:05 hrs.
  WARNING: FCV 65 open but cannot deliver flow at 5:05:05 hrs.
  
  WARNING: FCV 76 open but cannot deliver flow at 5:05:07 hrs.
  WARNING: FCV 3 open but cannot deliver flow at 5:05:07 hrs.
  
  WARNING: FCV 78 open but cannot deliver flow at 5:05:09 hrs.
  WARNING: FCV 66 open but cannot deliver flow at 5:05:09 hrs.
  WARNING: FCV 65 open but cannot deliver flow at 5:05:09 hrs.
  
  WARNING: FCV 76 open but cannot deliver flow at 5:05:11 hrs.
  WARNING: FCV 3 open but cannot deliver flow at 5:05:11 hrs.
  
  WARNING: FCV 78 open but cannot deliver flow at 5:05:13 hrs.
  WARNING: FCV 66 open but cannot deliver flow at 5:05:13 hrs.
  WARNING: FCV 65 open but cannot deliver flow at 5:05:13 hrs.
  
  WARNING: FCV 76 open but cannot deliver flow at 5:05:15 hrs.
  WARNING: FCV 3 open but cannot deliver flow at 5:05:15 hrs.
  
  WARNING: FCV 78 open but cannot deliver flow at 5:05:17 hrs.
  WARNING: FCV 66 open but cannot deliver flow at 5:05:17 hrs.
  WARNING: FCV 65 open but cannot deliver flow at 5:05:17 hrs.
  
  WARNING: FCV 76 open but cannot deliver flow at 5:05:19 hrs.
  WARNING: FCV 3 open but cannot deliver flow at 5:05:19 hrs.
  
  WARNING: FCV 78 open but cannot deliver flow at 5:05:21 hrs.
  WARNING: FCV 66 open but cannot deliver flow at 5:05:21 hrs.
  WARNING: FCV 65 open but cannot deliver flow at 5:05:21 hrs.
  
  WARNING: FCV 76 open but cannot deliver flow at 5:05:23 hrs.
  WARNING: FCV 3 open but cannot deliver flow at 5:05:23 hrs.
  
  WARNING: FCV 78 open but cannot deliver flow at 5:05:25 hrs.
  WARNING: FCV 66 open but cannot deliver flow at 5:05:25 hrs.
  WARNING: FCV 65 open but cannot deliver flow at 5:05:25 hrs.
  
  WARNING: FCV 76 open but cannot deliver flow at 5:05:27 hrs.
  WARNING: FCV 3 open but cannot deliver flow at 5:05:27 hrs.
  
  WARNING: FCV 78 open but cannot deliver flow at 5:05:29 hrs.
  WARNING: FCV 66 open but cannot deliver flow at 5:05:29 hrs.
  WARNING: FCV 65 open but cannot deliver flow at 5:05:29 hrs.
  
  WARNING: FCV 76 open but cannot deliver flow at 5:05:31 hrs.
  WARNING: FCV 3 open but cannot deliver flow at 5:05:31 hrs.
  
  WARNING: FCV 78 open but cannot deliver flow at 5:05:33 hrs.
  WARNING: FCV 66 open but cannot deliver flow at 5:05:33 hrs.
  WARNING: FCV 65 open but cannot deliver flow at 5:05:33 hrs.
  
  WARNING: FCV 76 open but cannot deliver flow at 5:05:35 hrs.
  WARNING: FCV 3 open but cannot deliver flow at 5:05:35 hrs.
  
  WARNING: FCV 78 open but cannot deliver flow at 5:05:37 hrs.
  WARNING: FCV 66 open but cannot deliver flow at 5:05:37 hrs.
  WARNING: FCV 65 open but cannot deliver flow at 5:05:37 hrs.
  
  WARNING: FCV 76 open but cannot deliver flow at 5:05:39 hrs.
  WARNING: FCV 3 open but cannot deliver flow at 5:05:39 hrs.
  
  WARNING: FCV 78 open but cannot deliver flow at 5:05:41 hrs.
  WARNING: FCV 66 open but cannot deliver flow at 5:05:41 hrs.
  WARNING: FCV 65 open but cannot deliver flow at 5:05:41 hrs.
  
  WARNING: FCV 76 open but cannot deliver flow at 5:05:43 hrs.
  WARNING: FCV 3 open but cannot deliver flow at 5:05:43 hrs.
  
  WARNING: FCV 78 open but cannot deliver flow at 5:05:45 hrs.
  WARNING: FCV 66 open but cannot deliver flow at 5:05:45 hrs.
  WARNING: FCV 65 open but cannot deliver flow at 5:05:45 hrs.
  
  WARNING: FCV 76 open but cannot deliver flow at 5:05:47 hrs.
  WARNING: FCV 3 open but cannot deliver flow at 5:05:47 hrs.
  
  WARNING: FCV 78 open but cannot deliver flow at 5:05:49 hrs.
  WARNING: FCV 66 open but cannot deliver flow at 5:05:49 hrs.
  WARNING: FCV 65 open but cannot deliver flow at 5:05:49 hrs.
  
  WARNING: FCV 76 open but cannot deliver flow at 5:05:51 hrs.
  WARNING: FCV 3 open but cannot deliver flow at 5:05:51 hrs.
  
  WARNING: FCV 78 open but cannot deliver flow at 5:05:53 hrs.
  WARNING: FCV 66 open but cannot deliver flow at 5:05:53 hrs.
  WARNING: FCV 65 open but cannot deliver flow at 5:05:53 hrs.
  
  WARNING: FCV 76 open but cannot deliver flow at 5:05:55 hrs.
  WARNING: FCV 3 open but cannot deliver flow at 5:05:55 hrs.
  
  WARNING: FCV 78 open but cannot deliver flow at 5:05:57 hrs.
  WARNING: FCV 66 open but cannot deliver flow at 5:05:57 hrs.
  WARNING: FCV 65 open but cannot deliver flow at 5:05:57 hrs.
  
  WARNING: FCV 76 open but cannot deliver flow at 5:05:59 hrs.
  WARNING: FCV 3 open but cannot deliver flow at 5:05:59 hrs.
  
  WARNING: FCV 78 open but cannot deliver flow at 5:06:01 hrs.
  WARNING: FCV 66 open but cannot deliver flow at 5:06:01 hrs.
  WARNING: FCV 65 open but cannot deliver flow at 5:06:01 hrs.
  
  WARNING: FCV 76 open but cannot deliver flow at 5:06:03 hrs.
  WARNING: FCV 3 open but cannot deliver flow at 5:06:03 hrs.
  
  WARNING: FCV 78 open but cannot deliver flow at 5:06:05 hrs.
  WARNING: FCV 66 open but cannot deliver flow at 5:06:05 hrs.
  WARNING: FCV 65 open but cannot deliver flow at 5:06:05 hrs.
  
  WARNING: FCV 76 open but cannot deliver flow at 5:06:07 hrs.
  WARNING: FCV 3 open but cannot deliver flow at 5:06:07 hrs.
  
  WARNING: FCV 78 open but cannot deliver flow at 5:06:09 hrs.
  WARNING: FCV 66 open but cannot deliver flow at 5:06:09 hrs.
  WARNING: FCV 65 open but cannot deliver flow at 5:06:09 hrs.
  
  WARNING: FCV 76 open but cannot deliver flow at 5:06:11 hrs.
  WARNING: FCV 3 open but cannot deliver flow at 5:06:11 hrs.
  
  WARNING: FCV 78 open but cannot deliver flow at 5:06:13 hrs.
  WARNING: FCV 66 open but cannot deliver flow at 5:06:13 hrs.
  WARNING: FCV 65 open but cannot deliver flow at 5:06:13 hrs.
  
  WARNING: FCV 76 open but cannot deliver flow at 5:06:15 hrs.
  WARNING: FCV 3 open but cannot deliver flow at 5:06:15 hrs.
  
  WARNING: FCV 78 open but cannot deliver flow at 5:06:17 hrs.
  WARNING: FCV 66 open but cannot deliver flow at 5:06:17 hrs.
  WARNING: FCV 65 open but cannot deliver flow at 5:06:17 hrs.
  
  WARNING: FCV 76 open but cannot deliver flow at 5:06:19 hrs.
  WARNING: FCV 3 open but cannot deliver flow at 5:06:19 hrs.
  
  WARNING: FCV 78 open but cannot deliver flow at 5:06:21 hrs.
  WARNING: FCV 66 open but cannot deliver flow at 5:06:21 hrs.
  WARNING: FCV 65 open but cannot deliver flow at 5:06:21 hrs.
  
  WARNING: FCV 76 open but cannot deliver flow at 5:06:23 hrs.
  WARNING: FCV 3 open but cannot deliver flow at 5:06:23 hrs.
  
  WARNING: FCV 74 open but cannot deliver flow at 5:06:25 hrs.
  WARNING: FCV 66 open but cannot deliver flow at 5:06:25 hrs.
  WARNING: FCV 65 open but cannot deliver flow at 5:06:25 hrs.
  WARNING: FCV 3 open but cannot deliver flow at 5:06:25 hrs.
  
  WARNING: FCV 76 open but cannot deliver flow at 5:06:27 hrs.
  WARNING: FCV 3 open but cannot deliver flow at 5:06:27 hrs.
  
  WARNING: FCV 78 open but cannot deliver flow at 5:06:29 hrs.
  WARNING: FCV 66 open but cannot deliver flow at 5:06:29 hrs.
  WARNING: FCV 65 open but cannot deliver flow at 5:06:29 hrs.
  
  WARNING: FCV 76 open but cannot deliver flow at 5:06:31 hrs.
  WARNING: FCV 3 open but cannot deliver flow at 5:06:31 hrs.
  
  WARNING: FCV 78 open but cannot deliver flow at 5:06:33 hrs.
  WARNING: FCV 66 open but cannot deliver flow at 5:06:33 hrs.
  WARNING: FCV 65 open but cannot deliver flow at 5:06:33 hrs.
  
  WARNING: FCV 76 open but cannot deliver flow at 5:06:35 hrs.
  WARNING: FCV 74 open but cannot deliver flow at 5:06:35 hrs.
  WARNING: FCV 3 open but cannot deliver flow at 5:06:35 hrs.
  
  WARNING: FCV 78 open but cannot deliver flow at 5:06:37 hrs.
  WARNING: FCV 66 open but cannot deliver flow at 5:06:37 hrs.
  WARNING: FCV 65 open but cannot deliver flow at 5:06:37 hrs.
  
  WARNING: FCV 76 open but cannot deliver flow at 5:06:39 hrs.
  WARNING: FCV 3 open but cannot deliver flow at 5:06:39 hrs.
  
  WARNING: FCV 78 open but cannot deliver flow at 5:06:41 hrs.
  WARNING: FCV 66 open but cannot deliver flow at 5:06:41 hrs.
  WARNING: FCV 65 open but cannot deliver flow at 5:06:41 hrs.
  
  WARNING: FCV 76 open but cannot deliver flow at 5:06:43 hrs.
  WARNING: FCV 3 open but cannot deliver flow at 5:06:43 hrs.
  
  WARNING: FCV 78 open but cannot deliver flow at 5:06:45 hrs.
  WARNING: FCV 66 open but cannot deliver flow at 5:06:45 hrs.
  WARNING: FCV 65 open but cannot deliver flow at 5:06:45 hrs.
  
  WARNING: FCV 76 open but cannot deliver flow at 5:06:47 hrs.
  WARNING: FCV 3 open but cannot deliver flow at 5:06:47 hrs.
  
  WARNING: FCV 74 open but cannot deliver flow at 5:06:49 hrs.
  WARNING: FCV 66 open but cannot deliver flow at 5:06:49 hrs.
  WARNING: FCV 65 open but cannot deliver flow at 5:06:49 hrs.
  WARNING: FCV 3 open but cannot deliver flow at 5:06:49 hrs.
  
  WARNING: FCV 76 open but cannot deliver flow at 5:06:51 hrs.
  WARNING: FCV 3 open but cannot deliver flow at 5:06:51 hrs.
  
  WARNING: FCV 78 open but cannot deliver flow at 5:06:53 hrs.
  WARNING: FCV 66 open but cannot deliver flow at 5:06:53 hrs.
  WARNING: FCV 65 open but cannot deliver flow at 5:06:53 hrs.
  
  WARNING: FCV 76 open but cannot deliver flow at 5:06:55 hrs.
  WARNING: FCV 3 open but cannot deliver flow at 5:06:55 hrs.
  
  WARNING: FCV 78 open but cannot deliver flow at 5:06:57 hrs.
  WARNING: FCV 66 open but cannot deliver flow at 5:06:57 hrs.
  WARNING: FCV 65 open but cannot deliver flow at 5:06:57 hrs.
  
  WARNING: FCV 76 open but cannot deliver flow at 5:06:59 hrs.
  WARNING: FCV 74 open but cannot deliver flow at 5:06:59 hrs.
  WARNING: FCV 3 open but cannot deliver flow at 5:06:59 hrs.
  
  WARNING: FCV 78 open but cannot deliver flow at 5:07:01 hrs.
  WARNING: FCV 66 open but cannot deliver flow at 5:07:01 hrs.
  WARNING: FCV 65 open but cannot deliver flow at 5:07:01 hrs.
  
  WARNING: FCV 76 open but cannot deliver flow at 5:07:03 hrs.
  WARNING: FCV 3 open but cannot deliver flow at 5:07:03 hrs.
  
  WARNING: FCV 78 open but cannot deliver flow at 5:07:05 hrs.
  WARNING: FCV 66 open but cannot deliver flow at 5:07:05 hrs.
  WARNING: FCV 65 open but cannot deliver flow at 5:07:05 hrs.
  
  WARNING: FCV 76 open but cannot deliver flow at 5:07:07 hrs.
  WARNING: FCV 3 open but cannot deliver flow at 5:07:07 hrs.
  
  WARNING: FCV 78 open but cannot deliver flow at 5:07:09 hrs.
  WARNING: FCV 66 open but cannot deliver flow at 5:07:09 hrs.
  WARNING: FCV 65 open but cannot deliver flow at 5:07:09 hrs.
  
  WARNING: FCV 76 open but cannot deliver flow at 5:07:11 hrs.
  WARNING: FCV 3 open but cannot deliver flow at 5:07:11 hrs.
  
  WARNING: FCV 74 open but cannot deliver flow at 5:07:13 hrs.
  WARNING: FCV 66 open but cannot deliver flow at 5:07:13 hrs.
  WARNING: FCV 65 open but cannot deliver flow at 5:07:13 hrs.
  WARNING: FCV 3 open but cannot deliver flow at 5:07:13 hrs.
  
  WARNING: FCV 76 open but cannot deliver flow at 5:07:15 hrs.
  WARNING: FCV 3 open but cannot deliver flow at 5:07:15 hrs.
  
  WARNING: FCV 78 open but cannot deliver flow at 5:07:17 hrs.
  WARNING: FCV 66 open but cannot deliver flow at 5:07:17 hrs.
  WARNING: FCV 65 open but cannot deliver flow at 5:07:17 hrs.
  
  WARNING: FCV 76 open but cannot deliver flow at 5:07:19 hrs.
  WARNING: FCV 3 open but cannot deliver flow at 5:07:19 hrs.
  
  WARNING: FCV 78 open but cannot deliver flow at 5:07:21 hrs.
  WARNING: FCV 66 open but cannot deliver flow at 5:07:21 hrs.
  WARNING: FCV 65 open but cannot deliver flow at 5:07:21 hrs.
  
  WARNING: FCV 76 open but cannot deliver flow at 5:07:23 hrs.
  WARNING: FCV 74 open but cannot deliver flow at 5:07:23 hrs.
  WARNING: FCV 3 open but cannot deliver flow at 5:07:23 hrs.
  
  WARNING: FCV 78 open but cannot deliver flow at 5:07:25 hrs.
  WARNING: FCV 66 open but cannot deliver flow at 5:07:25 hrs.
  WARNING: FCV 65 open but cannot deliver flow at 5:07:25 hrs.
  
  WARNING: FCV 76 open but cannot deliver flow at 5:07:27 hrs.
  WARNING: FCV 3 open but cannot deliver flow at 5:07:27 hrs.
  
  WARNING: FCV 78 open but cannot deliver flow at 5:07:29 hrs.
  WARNING: FCV 66 open but cannot deliver flow at 5:07:29 hrs.
  WARNING: FCV 65 open but cannot deliver flow at 5:07:29 hrs.
  
  WARNING: FCV 76 open but cannot deliver flow at 5:07:31 hrs.
  WARNING: FCV 3 open but cannot deliver flow at 5:07:31 hrs.
  
  WARNING: FCV 78 open but cannot deliver flow at 5:07:33 hrs.
  WARNING: FCV 66 open but cannot deliver flow at 5:07:33 hrs.
  WARNING: FCV 65 open but cannot deliver flow at 5:07:33 hrs.
  
  WARNING: FCV 76 open but cannot deliver flow at 5:07:35 hrs.
  WARNING: FCV 3 open but cannot deliver flow at 5:07:35 hrs.
  
  WARNING: FCV 74 open but cannot deliver flow at 5:07:37 hrs.
  WARNING: FCV 66 open but cannot deliver flow at 5:07:37 hrs.
  WARNING: FCV 65 open but cannot deliver flow at 5:07:37 hrs.
  WARNING: FCV 3 open but cannot deliver flow at 5:07:37 hrs.
  
  WARNING: FCV 76 open but cannot deliver flow at 5:07:39 hrs.
  WARNING: FCV 40 open but cannot deliver flow at 5:07:39 hrs.
  WARNING: FCV 3 open but cannot deliver flow at 5:07:39 hrs.
  
  WARNING: FCV 78 open but cannot deliver flow at 5:07:41 hrs.
  WARNING: FCV 66 open but cannot deliver flow at 5:07:41 hrs.
  WARNING: FCV 65 open but cannot deliver flow at 5:07:41 hrs.
  
  WARNING: FCV 76 open but cannot deliver flow at 5:07:43 hrs.
  WARNING: FCV 3 open but cannot deliver flow at 5:07:43 hrs.
  
  WARNING: FCV 78 open but cannot deliver flow at 5:07:45 hrs.
  WARNING: FCV 66 open but cannot deliver flow at 5:07:45 hrs.
  WARNING: FCV 65 open but cannot deliver flow at 5:07:45 hrs.
  
  WARNING: FCV 76 open but cannot deliver flow at 5:07:47 hrs.
  WARNING: FCV 74 open but cannot deliver flow at 5:07:47 hrs.
  WARNING: FCV 3 open but cannot deliver flow at 5:07:47 hrs.
  
  WARNING: FCV 78 open but cannot deliver flow at 5:07:49 hrs.
  WARNING: FCV 66 open but cannot deliver flow at 5:07:49 hrs.
  WARNING: FCV 65 open but cannot deliver flow at 5:07:49 hrs.
  
  WARNING: FCV 76 open but cannot deliver flow at 5:07:51 hrs.
  WARNING: FCV 3 open but cannot deliver flow at 5:07:51 hrs.
  
  WARNING: FCV 66 open but cannot deliver flow at 5:07:53 hrs.
  WARNING: FCV 65 open but cannot deliver flow at 5:07:53 hrs.
  WARNING: FCV 40 open but cannot deliver flow at 5:07:53 hrs.
  WARNING: FCV 3 open but cannot deliver flow at 5:07:53 hrs.
  
  WARNING: FCV 76 open but cannot deliver flow at 5:07:55 hrs.
  WARNING: FCV 3 open but cannot deliver flow at 5:07:55 hrs.
  
  WARNING: FCV 78 open but cannot deliver flow at 5:07:57 hrs.
  WARNING: FCV 66 open but cannot deliver flow at 5:07:57 hrs.
  WARNING: FCV 65 open but cannot deliver flow at 5:07:57 hrs.
  
  WARNING: FCV 76 open but cannot deliver flow at 5:07:59 hrs.
  WARNING: FCV 3 open but cannot deliver flow at 5:07:59 hrs.
  
  WARNING: FCV 74 open but cannot deliver flow at 5:08:01 hrs.
  WARNING: FCV 66 open but cannot deliver flow at 5:08:01 hrs.
  WARNING: FCV 65 open but cannot deliver flow at 5:08:01 hrs.
  WARNING: FCV 3 open but cannot deliver flow at 5:08:01 hrs.
  
  WARNING: FCV 76 open but cannot deliver flow at 5:08:03 hrs.
  WARNING: FCV 3 open but cannot deliver flow at 5:08:03 hrs.
  
  WARNING: FCV 66 open but cannot deliver flow at 5:08:05 hrs.
  WARNING: FCV 65 open but cannot deliver flow at 5:08:05 hrs.
  WARNING: FCV 40 open but cannot deliver flow at 5:08:05 hrs.
  WARNING: FCV 3 open but cannot deliver flow at 5:08:05 hrs.
  
  WARNING: FCV 76 open but cannot deliver flow at 5:08:07 hrs.
  WARNING: FCV 3 open but cannot deliver flow at 5:08:07 hrs.
  
  WARNING: FCV 78 open but cannot deliver flow at 5:08:09 hrs.
  WARNING: FCV 66 open but cannot deliver flow at 5:08:09 hrs.
  WARNING: FCV 65 open but cannot deliver flow at 5:08:09 hrs.
  
  WARNING: FCV 76 open but cannot deliver flow at 5:08:11 hrs.
  WARNING: FCV 74 open but cannot deliver flow at 5:08:11 hrs.
  WARNING: FCV 3 open but cannot deliver flow at 5:08:11 hrs.
  
  WARNING: FCV 78 open but cannot deliver flow at 5:08:13 hrs.
  WARNING: FCV 66 open but cannot deliver flow at 5:08:13 hrs.
  WARNING: FCV 65 open but cannot deliver flow at 5:08:13 hrs.
  
  WARNING: FCV 76 open but cannot deliver flow at 5:08:15 hrs.
  WARNING: FCV 3 open but cannot deliver flow at 5:08:15 hrs.
  
  WARNING: FCV 78 open but cannot deliver flow at 5:08:17 hrs.
  WARNING: FCV 66 open but cannot deliver flow at 5:08:17 hrs.
  WARNING: FCV 65 open but cannot deliver flow at 5:08:17 hrs.
  
  WARNING: FCV 76 open but cannot deliver flow at 5:08:19 hrs.
  WARNING: FCV 40 open but cannot deliver flow at 5:08:19 hrs.
  WARNING: FCV 3 open but cannot deliver flow at 5:08:19 hrs.
  
  WARNING: FCV 78 open but cannot deliver flow at 5:08:21 hrs.
  WARNING: FCV 66 open but cannot deliver flow at 5:08:21 hrs.
  WARNING: FCV 65 open but cannot deliver flow at 5:08:21 hrs.
  
  WARNING: FCV 76 open but cannot deliver flow at 5:08:23 hrs.
  WARNING: FCV 3 open but cannot deliver flow at 5:08:23 hrs.
  
  WARNING: FCV 74 open but cannot deliver flow at 5:08:25 hrs.
  WARNING: FCV 66 open but cannot deliver flow at 5:08:25 hrs.
  WARNING: FCV 65 open but cannot deliver flow at 5:08:25 hrs.
  WARNING: FCV 3 open but cannot deliver flow at 5:08:25 hrs.
  
  WARNING: FCV 76 open but cannot deliver flow at 5:08:27 hrs.
  WARNING: FCV 3 open but cannot deliver flow at 5:08:27 hrs.
  
  WARNING: FCV 78 open but cannot deliver flow at 5:08:29 hrs.
  WARNING: FCV 66 open but cannot deliver flow at 5:08:29 hrs.
  WARNING: FCV 65 open but cannot deliver flow at 5:08:29 hrs.
  
  WARNING: FCV 76 open but cannot deliver flow at 5:08:31 hrs.
  WARNING: FCV 3 open but cannot deliver flow at 5:08:31 hrs.
  
  WARNING: FCV 66 open but cannot deliver flow at 5:08:33 hrs.
  WARNING: FCV 65 open but cannot deliver flow at 5:08:33 hrs.
  WARNING: FCV 40 open but cannot deliver flow at 5:08:33 hrs.
  WARNING: FCV 3 open but cannot deliver flow at 5:08:33 hrs.
  
  WARNING: FCV 76 open but cannot deliver flow at 5:08:35 hrs.
  WARNING: FCV 74 open but cannot deliver flow at 5:08:35 hrs.
  WARNING: FCV 3 open but cannot deliver flow at 5:08:35 hrs.
  
  WARNING: FCV 78 open but cannot deliver flow at 5:08:37 hrs.
  WARNING: FCV 66 open but cannot deliver flow at 5:08:37 hrs.
  WARNING: FCV 65 open but cannot deliver flow at 5:08:37 hrs.
  
  WARNING: FCV 76 open but cannot deliver flow at 5:08:39 hrs.
  WARNING: FCV 3 open but cannot deliver flow at 5:08:39 hrs.
  
  WARNING: FCV 78 open but cannot deliver flow at 5:08:41 hrs.
  WARNING: FCV 66 open but cannot deliver flow at 5:08:41 hrs.
  WARNING: FCV 65 open but cannot deliver flow at 5:08:41 hrs.
  
  WARNING: FCV 76 open but cannot deliver flow at 5:08:43 hrs.
  WARNING: FCV 3 open but cannot deliver flow at 5:08:43 hrs.
  
  WARNING: FCV 78 open but cannot deliver flow at 5:08:45 hrs.
  WARNING: FCV 66 open but cannot deliver flow at 5:08:45 hrs.
  WARNING: FCV 65 open but cannot deliver flow at 5:08:45 hrs.
  
  WARNING: FCV 76 open but cannot deliver flow at 5:08:47 hrs.
  WARNING: FCV 40 open but cannot deliver flow at 5:08:47 hrs.
  WARNING: FCV 3 open but cannot deliver flow at 5:08:47 hrs.
  
  WARNING: FCV 74 open but cannot deliver flow at 5:08:49 hrs.
  WARNING: FCV 66 open but cannot deliver flow at 5:08:49 hrs.
  WARNING: FCV 65 open but cannot deliver flow at 5:08:49 hrs.
  WARNING: FCV 3 open but cannot deliver flow at 5:08:49 hrs.
  
  WARNING: FCV 76 open but cannot deliver flow at 5:08:51 hrs.
  WARNING: FCV 3 open but cannot deliver flow at 5:08:51 hrs.
  
  WARNING: FCV 78 open but cannot deliver flow at 5:08:53 hrs.
  WARNING: FCV 66 open but cannot deliver flow at 5:08:53 hrs.
  WARNING: FCV 65 open but cannot deliver flow at 5:08:53 hrs.
  
  WARNING: FCV 76 open but cannot deliver flow at 5:08:55 hrs.
  WARNING: FCV 3 open but cannot deliver flow at 5:08:55 hrs.
  
  WARNING: FCV 78 open but cannot deliver flow at 5:08:57 hrs.
  WARNING: FCV 66 open but cannot deliver flow at 5:08:57 hrs.
  WARNING: FCV 65 open but cannot deliver flow at 5:08:57 hrs.
  
  WARNING: FCV 76 open but cannot deliver flow at 5:08:59 hrs.
  WARNING: FCV 74 open but cannot deliver flow at 5:08:59 hrs.
  WARNING: FCV 40 open but cannot deliver flow at 5:08:59 hrs.
  WARNING: FCV 3 open but cannot deliver flow at 5:08:59 hrs.
  
  WARNING: FCV 78 open but cannot deliver flow at 5:09:01 hrs.
  WARNING: FCV 66 open but cannot deliver flow at 5:09:01 hrs.
  WARNING: FCV 65 open but cannot deliver flow at 5:09:01 hrs.
  
  WARNING: FCV 76 open but cannot deliver flow at 5:09:03 hrs.
  WARNING: FCV 3 open but cannot deliver flow at 5:09:03 hrs.
  
  WARNING: FCV 78 open but cannot deliver flow at 5:09:05 hrs.
  WARNING: FCV 66 open but cannot deliver flow at 5:09:05 hrs.
  WARNING: FCV 65 open but cannot deliver flow at 5:09:05 hrs.
  
  WARNING: FCV 76 open but cannot deliver flow at 5:09:07 hrs.
  WARNING: FCV 3 open but cannot deliver flow at 5:09:07 hrs.
  
  WARNING: FCV 78 open but cannot deliver flow at 5:09:09 hrs.
  WARNING: FCV 66 open but cannot deliver flow at 5:09:09 hrs.
  WARNING: FCV 65 open but cannot deliver flow at 5:09:09 hrs.
  
  WARNING: FCV 76 open but cannot deliver flow at 5:09:11 hrs.
  WARNING: FCV 3 open but cannot deliver flow at 5:09:11 hrs.
  
  WARNING: FCV 74 open but cannot deliver flow at 5:09:13 hrs.
  WARNING: FCV 66 open but cannot deliver flow at 5:09:13 hrs.
  WARNING: FCV 65 open but cannot deliver flow at 5:09:13 hrs.
  WARNING: FCV 40 open but cannot deliver flow at 5:09:13 hrs.
  WARNING: FCV 3 open but cannot deliver flow at 5:09:13 hrs.
  
  WARNING: FCV 76 open but cannot deliver flow at 5:09:15 hrs.
  WARNING: FCV 3 open but cannot deliver flow at 5:09:15 hrs.
  
  WARNING: FCV 78 open but cannot deliver flow at 5:09:17 hrs.
  WARNING: FCV 66 open but cannot deliver flow at 5:09:17 hrs.
  WARNING: FCV 65 open but cannot deliver flow at 5:09:17 hrs.
  
  WARNING: FCV 76 open but cannot deliver flow at 5:09:19 hrs.
  WARNING: FCV 3 open but cannot deliver flow at 5:09:19 hrs.
  
  WARNING: FCV 78 open but cannot deliver flow at 5:09:21 hrs.
  WARNING: FCV 66 open but cannot deliver flow at 5:09:21 hrs.
  WARNING: FCV 65 open but cannot deliver flow at 5:09:21 hrs.
  
  WARNING: FCV 76 open but cannot deliver flow at 5:09:23 hrs.
  WARNING: FCV 74 open but cannot deliver flow at 5:09:23 hrs.
  WARNING: FCV 3 open but cannot deliver flow at 5:09:23 hrs.
  
  WARNING: FCV 78 open but cannot deliver flow at 5:09:25 hrs.
  WARNING: FCV 66 open but cannot deliver flow at 5:09:25 hrs.
  WARNING: FCV 65 open but cannot deliver flow at 5:09:25 hrs.
  
  WARNING: FCV 76 open but cannot deliver flow at 5:09:27 hrs.
  WARNING: FCV 40 open but cannot deliver flow at 5:09:27 hrs.
  WARNING: FCV 3 open but cannot deliver flow at 5:09:27 hrs.
  
  WARNING: FCV 78 open but cannot deliver flow at 5:09:29 hrs.
  WARNING: FCV 66 open but cannot deliver flow at 5:09:29 hrs.
  WARNING: FCV 65 open but cannot deliver flow at 5:09:29 hrs.
  
  WARNING: FCV 76 open but cannot deliver flow at 5:09:31 hrs.
  WARNING: FCV 3 open but cannot deliver flow at 5:09:31 hrs.
  
  WARNING: FCV 78 open but cannot deliver flow at 5:09:33 hrs.
  WARNING: FCV 66 open but cannot deliver flow at 5:09:33 hrs.
  WARNING: FCV 65 open but cannot deliver flow at 5:09:33 hrs.
  
  WARNING: FCV 76 open but cannot deliver flow at 5:09:35 hrs.
  WARNING: FCV 3 open but cannot deliver flow at 5:09:35 hrs.
  
  WARNING: FCV 74 open but cannot deliver flow at 5:09:37 hrs.
  WARNING: FCV 66 open but cannot deliver flow at 5:09:37 hrs.
  WARNING: FCV 65 open but cannot deliver flow at 5:09:37 hrs.
  WARNING: FCV 3 open but cannot deliver flow at 5:09:37 hrs.
  
  WARNING: FCV 76 open but cannot deliver flow at 5:09:39 hrs.
  WARNING: FCV 3 open but cannot deliver flow at 5:09:39 hrs.
  
  WARNING: FCV 66 open but cannot deliver flow at 5:09:41 hrs.
  WARNING: FCV 65 open but cannot deliver flow at 5:09:41 hrs.
  WARNING: FCV 40 open but cannot deliver flow at 5:09:41 hrs.
  WARNING: FCV 3 open but cannot deliver flow at 5:09:41 hrs.
  
  WARNING: FCV 76 open but cannot deliver flow at 5:09:43 hrs.
  WARNING: FCV 3 open but cannot deliver flow at 5:09:43 hrs.
  
  WARNING: FCV 78 open but cannot deliver flow at 5:09:45 hrs.
  WARNING: FCV 66 open but cannot deliver flow at 5:09:45 hrs.
  WARNING: FCV 65 open but cannot deliver flow at 5:09:45 hrs.
  
  WARNING: FCV 76 open but cannot deliver flow at 5:09:47 hrs.
  WARNING: FCV 74 open but cannot deliver flow at 5:09:47 hrs.
  WARNING: FCV 3 open but cannot deliver flow at 5:09:47 hrs.
  
  WARNING: FCV 78 open but cannot deliver flow at 5:09:49 hrs.
  WARNING: FCV 66 open but cannot deliver flow at 5:09:49 hrs.
  WARNING: FCV 65 open but cannot deliver flow at 5:09:49 hrs.
  
  WARNING: FCV 76 open but cannot deliver flow at 5:09:51 hrs.
  WARNING: FCV 3 open but cannot deliver flow at 5:09:51 hrs.
  
  WARNING: FCV 66 open but cannot deliver flow at 5:09:53 hrs.
  WARNING: FCV 65 open but cannot deliver flow at 5:09:53 hrs.
  WARNING: FCV 40 open but cannot deliver flow at 5:09:53 hrs.
  WARNING: FCV 3 open but cannot deliver flow at 5:09:53 hrs.
  
  WARNING: FCV 76 open but cannot deliver flow at 5:09:55 hrs.
  WARNING: FCV 3 open but cannot deliver flow at 5:09:55 hrs.
  
  WARNING: FCV 78 open but cannot deliver flow at 5:09:57 hrs.
  WARNING: FCV 66 open but cannot deliver flow at 5:09:57 hrs.
  WARNING: FCV 65 open but cannot deliver flow at 5:09:57 hrs.
  
  WARNING: FCV 76 open but cannot deliver flow at 5:09:59 hrs.
  WARNING: FCV 3 open but cannot deliver flow at 5:09:59 hrs.
  
  WARNING: FCV 74 open but cannot deliver flow at 5:10:01 hrs.
  WARNING: FCV 66 open but cannot deliver flow at 5:10:01 hrs.
  WARNING: FCV 65 open but cannot deliver flow at 5:10:01 hrs.
  WARNING: FCV 3 open but cannot deliver flow at 5:10:01 hrs.
  
  WARNING: FCV 76 open but cannot deliver flow at 5:10:03 hrs.
  WARNING: FCV 3 open but cannot deliver flow at 5:10:03 hrs.
  
  WARNING: FCV 78 open but cannot deliver flow at 5:10:05 hrs.
  WARNING: FCV 66 open but cannot deliver flow at 5:10:05 hrs.
  WARNING: FCV 65 open but cannot deliver flow at 5:10:05 hrs.
  
  WARNING: FCV 76 open but cannot deliver flow at 5:10:07 hrs.
  WARNING: FCV 40 open but cannot deliver flow at 5:10:07 hrs.
  WARNING: FCV 3 open but cannot deliver flow at 5:10:07 hrs.
  
  WARNING: FCV 78 open but cannot deliver flow at 5:10:09 hrs.
  WARNING: FCV 66 open but cannot deliver flow at 5:10:09 hrs.
  WARNING: FCV 65 open but cannot deliver flow at 5:10:09 hrs.
  
  WARNING: FCV 76 open but cannot deliver flow at 5:10:11 hrs.
  WARNING: FCV 74 open but cannot deliver flow at 5:10:11 hrs.
  WARNING: FCV 3 open but cannot deliver flow at 5:10:11 hrs.
  
  WARNING: FCV 78 open but cannot deliver flow at 5:10:13 hrs.
  WARNING: FCV 66 open but cannot deliver flow at 5:10:13 hrs.
  WARNING: FCV 65 open but cannot deliver flow at 5:10:13 hrs.
  
  WARNING: FCV 76 open but cannot deliver flow at 5:10:15 hrs.
  WARNING: FCV 3 open but cannot deliver flow at 5:10:15 hrs.
  
  WARNING: FCV 78 open but cannot deliver flow at 5:10:17 hrs.
  WARNING: FCV 66 open but cannot deliver flow at 5:10:17 hrs.
  WARNING: FCV 65 open but cannot deliver flow at 5:10:17 hrs.
  
  WARNING: FCV 76 open but cannot deliver flow at 5:10:19 hrs.
  WARNING: FCV 3 open but cannot deliver flow at 5:10:19 hrs.
  
  WARNING: FCV 66 open but cannot deliver flow at 5:10:21 hrs.
  WARNING: FCV 65 open but cannot deliver flow at 5:10:21 hrs.
  WARNING: FCV 40 open but cannot deliver flow at 5:10:21 hrs.
  WARNING: FCV 3 open but cannot deliver flow at 5:10:21 hrs.
  
  WARNING: FCV 76 open but cannot deliver flow at 5:10:23 hrs.
  WARNING: FCV 3 open but cannot deliver flow at 5:10:23 hrs.
  
  WARNING: FCV 74 open but cannot deliver flow at 5:10:25 hrs.
  WARNING: FCV 66 open but cannot deliver flow at 5:10:25 hrs.
  WARNING: FCV 65 open but cannot deliver flow at 5:10:25 hrs.
  WARNING: FCV 3 open but cannot deliver flow at 5:10:25 hrs.
  
  WARNING: FCV 76 open but cannot deliver flow at 5:10:27 hrs.
  WARNING: FCV 3 open but cannot deliver flow at 5:10:27 hrs.
  
  WARNING: FCV 78 open but cannot deliver flow at 5:10:29 hrs.
  WARNING: FCV 66 open but cannot deliver flow at 5:10:29 hrs.
  WARNING: FCV 65 open but cannot deliver flow at 5:10:29 hrs.
  
  WARNING: FCV 76 open but cannot deliver flow at 5:10:31 hrs.
  WARNING: FCV 3 open but cannot deliver flow at 5:10:31 hrs.
  
  WARNING: FCV 78 open but cannot deliver flow at 5:10:33 hrs.
  WARNING: FCV 66 open but cannot deliver flow at 5:10:33 hrs.
  WARNING: FCV 65 open but cannot deliver flow at 5:10:33 hrs.
  
  WARNING: FCV 76 open but cannot deliver flow at 5:10:35 hrs.
  WARNING: FCV 74 open but cannot deliver flow at 5:10:35 hrs.
  WARNING: FCV 40 open but cannot deliver flow at 5:10:35 hrs.
  WARNING: FCV 3 open but cannot deliver flow at 5:10:35 hrs.
  
  WARNING: FCV 78 open but cannot deliver flow at 5:10:37 hrs.
  WARNING: FCV 66 open but cannot deliver flow at 5:10:37 hrs.
  WARNING: FCV 65 open but cannot deliver flow at 5:10:37 hrs.
  
  WARNING: FCV 76 open but cannot deliver flow at 5:10:39 hrs.
  WARNING: FCV 3 open but cannot deliver flow at 5:10:39 hrs.
  
  WARNING: FCV 78 open but cannot deliver flow at 5:10:41 hrs.
  WARNING: FCV 66 open but cannot deliver flow at 5:10:41 hrs.
  WARNING: FCV 65 open but cannot deliver flow at 5:10:41 hrs.
  
  WARNING: FCV 76 open but cannot deliver flow at 5:10:43 hrs.
  WARNING: FCV 3 open but cannot deliver flow at 5:10:43 hrs.
  
  WARNING: FCV 78 open but cannot deliver flow at 5:10:45 hrs.
  WARNING: FCV 66 open but cannot deliver flow at 5:10:45 hrs.
  WARNING: FCV 65 open but cannot deliver flow at 5:10:45 hrs.
  
  WARNING: FCV 76 open but cannot deliver flow at 5:10:47 hrs.
  WARNING: FCV 3 open but cannot deliver flow at 5:10:47 hrs.
  
  WARNING: FCV 74 open but cannot deliver flow at 5:10:49 hrs.
  WARNING: FCV 66 open but cannot deliver flow at 5:10:49 hrs.
  WARNING: FCV 65 open but cannot deliver flow at 5:10:49 hrs.
  WARNING: FCV 40 open but cannot deliver flow at 5:10:49 hrs.
  WARNING: FCV 3 open but cannot deliver flow at 5:10:49 hrs.
  
  WARNING: FCV 76 open but cannot deliver flow at 5:10:51 hrs.
  WARNING: FCV 3 open but cannot deliver flow at 5:10:51 hrs.
  
  WARNING: FCV 78 open but cannot deliver flow at 5:10:53 hrs.
  WARNING: FCV 66 open but cannot deliver flow at 5:10:53 hrs.
  WARNING: FCV 65 open but cannot deliver flow at 5:10:53 hrs.
  
  WARNING: FCV 76 open but cannot deliver flow at 5:10:55 hrs.
  WARNING: FCV 3 open but cannot deliver flow at 5:10:55 hrs.
  
  WARNING: FCV 78 open but cannot deliver flow at 5:10:57 hrs.
  WARNING: FCV 66 open but cannot deliver flow at 5:10:57 hrs.
  WARNING: FCV 65 open but cannot deliver flow at 5:10:57 hrs.
  
  WARNING: FCV 76 open but cannot deliver flow at 5:10:59 hrs.
[...]
  WARNING: FCV 65 open but cannot deliver flow at 20:38:07 hrs.
  WARNING: FCV 40 open but cannot deliver flow at 20:38:07 hrs.
  WARNING: Node 4 disconnected at 20:38:07 hrs
  WARNING: System disconnected because of Link 1
  
  WARNING: FCV 76 open but cannot deliver flow at 20:38:08 hrs.
  WARNING: FCV 66 open but cannot deliver flow at 20:38:08 hrs.
  WARNING: FCV 3 open but cannot deliver flow at 20:38:08 hrs.
  
  WARNING: FCV 78 open but cannot deliver flow at 20:38:09 hrs.
  WARNING: FCV 74 open but cannot deliver flow at 20:38:09 hrs.
  WARNING: FCV 66 open but cannot deliver flow at 20:38:09 hrs.
  WARNING: FCV 65 open but cannot deliver flow at 20:38:09 hrs.
  WARNING: FCV 40 open but cannot deliver flow at 20:38:09 hrs.
  
  WARNING: Negative pressures at 20:38:10 hrs.
  WARNING: FCV 76 open but cannot deliver flow at 20:38:10 hrs.
  WARNING: FCV 3 open but cannot deliver flow at 20:38:10 hrs.
  WARNING: Node 4 disconnected at 20:38:10 hrs
  WARNING: System disconnected because of Link 1
  
  WARNING: FCV 78 open but cannot deliver flow at 20:38:11 hrs.
  WARNING: FCV 74 open but cannot deliver flow at 20:38:11 hrs.
  WARNING: FCV 66 open but cannot deliver flow at 20:38:11 hrs.
  WARNING: FCV 65 open but cannot deliver flow at 20:38:11 hrs.
  WARNING: FCV 40 open but cannot deliver flow at 20:38:11 hrs.
  
  WARNING: FCV 76 open but cannot deliver flow at 20:38:12 hrs.
  WARNING: FCV 3 open but cannot deliver flow at 20:38:12 hrs.
  
  WARNING: Negative pressures at 20:38:13 hrs.
  WARNING: FCV 78 open but cannot deliver flow at 20:38:13 hrs.
  WARNING: FCV 74 open but cannot deliver flow at 20:38:13 hrs.
  WARNING: FCV 65 open but cannot deliver flow at 20:38:13 hrs.
  WARNING: FCV 40 open but cannot deliver flow at 20:38:13 hrs.
  WARNING: Node 4 disconnected at 20:38:13 hrs
  WARNING: System disconnected because of Link 1
  
  WARNING: FCV 76 open but cannot deliver flow at 20:38:14 hrs.
  WARNING: FCV 66 open but cannot deliver flow at 20:38:14 hrs.
  WARNING: FCV 3 open but cannot deliver flow at 20:38:14 hrs.
  
  WARNING: FCV 78 open but cannot deliver flow at 20:38:15 hrs.
  WARNING: FCV 74 open but cannot deliver flow at 20:38:15 hrs.
  WARNING: FCV 66 open but cannot deliver flow at 20:38:15 hrs.
  WARNING: FCV 65 open but cannot deliver flow at 20:38:15 hrs.
  WARNING: FCV 40 open but cannot deliver flow at 20:38:15 hrs.
  
  WARNING: FCV 76 open but cannot deliver flow at 20:38:16 hrs.
  WARNING: FCV 3 open but cannot deliver flow at 20:38:16 hrs.
  
  WARNING: Negative pressures at 20:38:17 hrs.
  WARNING: FCV 78 open but cannot deliver flow at 20:38:17 hrs.
  WARNING: FCV 74 open but cannot deliver flow at 20:38:17 hrs.
  WARNING: FCV 66 open but cannot deliver flow at 20:38:17 hrs.
  WARNING: FCV 65 open but cannot deliver flow at 20:38:17 hrs.
  WARNING: FCV 40 open but cannot deliver flow at 20:38:17 hrs.
  WARNING: Node 4 disconnected at 20:38:17 hrs
  WARNING: System disconnected because of Link 1
  
  WARNING: FCV 76 open but cannot deliver flow at 20:38:18 hrs.
  WARNING: FCV 3 open but cannot deliver flow at 20:38:18 hrs.
  
  WARNING: FCV 78 open but cannot deliver flow at 20:38:19 hrs.
  WARNING: FCV 74 open but cannot deliver flow at 20:38:19 hrs.
  WARNING: FCV 65 open but cannot deliver flow at 20:38:19 hrs.
  WARNING: FCV 40 open but cannot deliver flow at 20:38:19 hrs.
  
  WARNING: Negative pressures at 20:38:20 hrs.
  WARNING: FCV 76 open but cannot deliver flow at 20:38:20 hrs.
  WARNING: FCV 66 open but cannot deliver flow at 20:38:20 hrs.
  WARNING: FCV 3 open but cannot deliver flow at 20:38:20 hrs.
  WARNING: Node 4 disconnected at 20:38:20 hrs
  WARNING: System disconnected because of Link 1
  
  WARNING: FCV 78 open but cannot deliver flow at 20:38:21 hrs.
  WARNING: FCV 74 open but cannot deliver flow at 20:38:21 hrs.
  WARNING: FCV 66 open but cannot deliver flow at 20:38:21 hrs.
  WARNING: FCV 65 open but cannot deliver flow at 20:38:21 hrs.
  WARNING: FCV 40 open but cannot deliver flow at 20:38:21 hrs.
  
  WARNING: FCV 76 open but cannot deliver flow at 20:38:22 hrs.
  WARNING: FCV 3 open but cannot deliver flow at 20:38:22 hrs.
  
  WARNING: FCV 78 open but cannot deliver flow at 20:38:23 hrs.
  WARNING: FCV 74 open but cannot deliver flow at 20:38:23 hrs.
  WARNING: FCV 66 open but cannot deliver flow at 20:38:23 hrs.
  WARNING: FCV 65 open but cannot deliver flow at 20:38:23 hrs.
  WARNING: FCV 40 open but cannot deliver flow at 20:38:23 hrs.
  
  WARNING: Negative pressures at 20:38:24 hrs.
  WARNING: FCV 76 open but cannot deliver flow at 20:38:24 hrs.
  WARNING: FCV 3 open but cannot deliver flow at 20:38:24 hrs.
  WARNING: Node 4 disconnected at 20:38:24 hrs
  WARNING: System disconnected because of Link 1
  
  WARNING: FCV 78 open but cannot deliver flow at 20:38:25 hrs.
  WARNING: FCV 74 open but cannot deliver flow at 20:38:25 hrs.
  WARNING: FCV 65 open but cannot deliver flow at 20:38:25 hrs.
  WARNING: FCV 40 open but cannot deliver flow at 20:38:25 hrs.
  
  WARNING: FCV 76 open but cannot deliver flow at 20:38:26 hrs.
  WARNING: FCV 66 open but cannot deliver flow at 20:38:26 hrs.
  WARNING: FCV 3 open but cannot deliver flow at 20:38:26 hrs.
  
  WARNING: Negative pressures at 20:38:27 hrs.
  WARNING: FCV 78 open but cannot deliver flow at 20:38:27 hrs.
  WARNING: FCV 74 open but cannot deliver flow at 20:38:27 hrs.
  WARNING: FCV 66 open but cannot deliver flow at 20:38:27 hrs.
  WARNING: FCV 65 open but cannot deliver flow at 20:38:27 hrs.
  WARNING: FCV 40 open but cannot deliver flow at 20:38:27 hrs.
  WARNING: Node 4 disconnected at 20:38:27 hrs
  WARNING: System disconnected because of Link 1
  
  WARNING: FCV 76 open but cannot deliver flow at 20:38:28 hrs.
  WARNING: FCV 3 open but cannot deliver flow at 20:38:28 hrs.
  
  WARNING: FCV 78 open but cannot deliver flow at 20:38:29 hrs.
  WARNING: FCV 74 open but cannot deliver flow at 20:38:29 hrs.
  WARNING: FCV 66 open but cannot deliver flow at 20:38:29 hrs.
  WARNING: FCV 65 open but cannot deliver flow at 20:38:29 hrs.
  WARNING: FCV 40 open but cannot deliver flow at 20:38:29 hrs.
  
  WARNING: FCV 76 open but cannot deliver flow at 20:38:30 hrs.
  WARNING: FCV 3 open but cannot deliver flow at 20:38:30 hrs.
  
  WARNING: Negative pressures at 20:38:31 hrs.
  WARNING: FCV 78 open but cannot deliver flow at 20:38:31 hrs.
  WARNING: FCV 74 open but cannot deliver flow at 20:38:31 hrs.
  WARNING: FCV 65 open but cannot deliver flow at 20:38:31 hrs.
  WARNING: FCV 40 open but cannot deliver flow at 20:38:31 hrs.
  WARNING: Node 4 disconnected at 20:38:31 hrs
  WARNING: System disconnected because of Link 1
  
  WARNING: FCV 76 open but cannot deliver flow at 20:38:32 hrs.
  WARNING: FCV 66 open but cannot deliver flow at 20:38:32 hrs.
  WARNING: FCV 3 open but cannot deliver flow at 20:38:32 hrs.
  
  WARNING: FCV 78 open but cannot deliver flow at 20:38:33 hrs.
  WARNING: FCV 74 open but cannot deliver flow at 20:38:33 hrs.
  WARNING: FCV 66 open but cannot deliver flow at 20:38:33 hrs.
  WARNING: FCV 65 open but cannot deliver flow at 20:38:33 hrs.
  WARNING: FCV 40 open but cannot deliver flow at 20:38:33 hrs.
  
  WARNING: Negative pressures at 20:38:34 hrs.
  WARNING: FCV 76 open but cannot deliver flow at 20:38:34 hrs.
  WARNING: FCV 3 open but cannot deliver flow at 20:38:34 hrs.
  WARNING: Node 4 disconnected at 20:38:34 hrs
  WARNING: System disconnected because of Link 1
  
  WARNING: FCV 78 open but cannot deliver flow at 20:38:35 hrs.
  WARNING: FCV 74 open but cannot deliver flow at 20:38:35 hrs.
  WARNING: FCV 66 open but cannot deliver flow at 20:38:35 hrs.
  WARNING: FCV 65 open but cannot deliver flow at 20:38:35 hrs.
  WARNING: FCV 40 open but cannot deliver flow at 20:38:35 hrs.
  
  WARNING: FCV 76 open but cannot deliver flow at 20:38:36 hrs.
  WARNING: FCV 3 open but cannot deliver flow at 20:38:36 hrs.
  
  WARNING: Negative pressures at 20:38:37 hrs.
  WARNING: FCV 78 open but cannot deliver flow at 20:38:37 hrs.
  WARNING: FCV 74 open but cannot deliver flow at 20:38:37 hrs.
  WARNING: FCV 65 open but cannot deliver flow at 20:38:37 hrs.
  WARNING: FCV 40 open but cannot deliver flow at 20:38:37 hrs.
  WARNING: Node 4 disconnected at 20:38:37 hrs
  WARNING: System disconnected because of Link 1
  
  WARNING: FCV 76 open but cannot deliver flow at 20:38:38 hrs.
  WARNING: FCV 66 open but cannot deliver flow at 20:38:38 hrs.
  WARNING: FCV 3 open but cannot deliver flow at 20:38:38 hrs.
  
  WARNING: FCV 78 open but cannot deliver flow at 20:38:39 hrs.
  WARNING: FCV 74 open but cannot deliver flow at 20:38:39 hrs.
  WARNING: FCV 66 open but cannot deliver flow at 20:38:39 hrs.
  WARNING: FCV 65 open but cannot deliver flow at 20:38:39 hrs.
  WARNING: FCV 40 open but cannot deliver flow at 20:38:39 hrs.
  
  WARNING: FCV 76 open but cannot deliver flow at 20:38:40 hrs.
  WARNING: FCV 3 open but cannot deliver flow at 20:38:40 hrs.
  
  WARNING: Negative pressures at 20:38:41 hrs.
  WARNING: FCV 78 open but cannot deliver flow at 20:38:41 hrs.
  WARNING: FCV 74 open but cannot deliver flow at 20:38:41 hrs.
  WARNING: FCV 66 open but cannot deliver flow at 20:38:41 hrs.
  WARNING: FCV 65 open but cannot deliver flow at 20:38:41 hrs.
  WARNING: FCV 40 open but cannot deliver flow at 20:38:41 hrs.
  WARNING: Node 4 disconnected at 20:38:41 hrs
  WARNING: System disconnected because of Link 1
  
  WARNING: FCV 76 open but cannot deliver flow at 20:38:42 hrs.
  WARNING: FCV 3 open but cannot deliver flow at 20:38:42 hrs.
  
  WARNING: FCV 78 open but cannot deliver flow at 20:38:43 hrs.
  WARNING: FCV 74 open but cannot deliver flow at 20:38:43 hrs.
  WARNING: FCV 65 open but cannot deliver flow at 20:38:43 hrs.
  WARNING: FCV 40 open but cannot deliver flow at 20:38:43 hrs.
  
  WARNING: Negative pressures at 20:38:44 hrs.
  WARNING: FCV 76 open but cannot deliver flow at 20:38:44 hrs.
  WARNING: FCV 66 open but cannot deliver flow at 20:38:44 hrs.
  WARNING: FCV 3 open but cannot deliver flow at 20:38:44 hrs.
  WARNING: Node 4 disconnected at 20:38:44 hrs
  WARNING: System disconnected because of Link 1
  
  WARNING: FCV 78 open but cannot deliver flow at 20:38:45 hrs.
  WARNING: FCV 74 open but cannot deliver flow at 20:38:45 hrs.
  WARNING: FCV 66 open but cannot deliver flow at 20:38:45 hrs.
  WARNING: FCV 65 open but cannot deliver flow at 20:38:45 hrs.
  WARNING: FCV 40 open but cannot deliver flow at 20:38:45 hrs.
  
  WARNING: FCV 76 open but cannot deliver flow at 20:38:46 hrs.
  WARNING: FCV 3 open but cannot deliver flow at 20:38:46 hrs.
  
  WARNING: FCV 78 open but cannot deliver flow at 20:38:47 hrs.
  WARNING: FCV 74 open but cannot deliver flow at 20:38:47 hrs.
  WARNING: FCV 66 open but cannot deliver flow at 20:38:47 hrs.
  WARNING: FCV 65 open but cannot deliver flow at 20:38:47 hrs.
  WARNING: FCV 40 open but cannot deliver flow at 20:38:47 hrs.
  
  WARNING: Negative pressures at 20:38:48 hrs.
  WARNING: FCV 76 open but cannot deliver flow at 20:38:48 hrs.
  WARNING: FCV 3 open but cannot deliver flow at 20:38:48 hrs.
  WARNING: Node 4 disconnected at 20:38:48 hrs
  WARNING: System disconnected because of Link 1
  
  WARNING: FCV 78 open but cannot deliver flow at 20:38:49 hrs.
  WARNING: FCV 74 open but cannot deliver flow at 20:38:49 hrs.
  WARNING: FCV 65 open but cannot deliver flow at 20:38:49 hrs.
  WARNING: FCV 40 open but cannot deliver flow at 20:38:49 hrs.
  
  WARNING: FCV 76 open but cannot deliver flow at 20:38:50 hrs.
  WARNING: FCV 66 open but cannot deliver flow at 20:38:50 hrs.
  WARNING: FCV 3 open but cannot deliver flow at 20:38:50 hrs.
  
  WARNING: Negative pressures at 20:38:51 hrs.
  WARNING: FCV 78 open but cannot deliver flow at 20:38:51 hrs.
  WARNING: FCV 74 open but cannot deliver flow at 20:38:51 hrs.
  WARNING: FCV 66 open but cannot deliver flow at 20:38:51 hrs.
  WARNING: FCV 65 open but cannot deliver flow at 20:38:51 hrs.
  WARNING: FCV 40 open but cannot deliver flow at 20:38:51 hrs.
  WARNING: Node 4 disconnected at 20:38:51 hrs
  WARNING: System disconnected because of Link 1
  
  WARNING: FCV 76 open but cannot deliver flow at 20:38:52 hrs.
  WARNING: FCV 3 open but cannot deliver flow at 20:38:52 hrs.
  
  WARNING: FCV 78 open but cannot deliver flow at 20:38:53 hrs.
  WARNING: FCV 74 open but cannot deliver flow at 20:38:53 hrs.
  WARNING: FCV 66 open but cannot deliver flow at 20:38:53 hrs.
  WARNING: FCV 65 open but cannot deliver flow at 20:38:53 hrs.
  WARNING: FCV 40 open but cannot deliver flow at 20:38:53 hrs.
  
  WARNING: Negative pressures at 20:38:54 hrs.
  WARNING: FCV 76 open but cannot deliver flow at 20:38:54 hrs.
  WARNING: FCV 3 open but cannot deliver flow at 20:38:54 hrs.
  WARNING: Node 4 disconnected at 20:38:54 hrs
  WARNING: System disconnected because of Link 1
  
  WARNING: FCV 78 open but cannot deliver flow at 20:38:55 hrs.
  WARNING: FCV 74 open but cannot deliver flow at 20:38:55 hrs.
  WARNING: FCV 65 open but cannot deliver flow at 20:38:55 hrs.
  WARNING: FCV 40 open but cannot deliver flow at 20:38:55 hrs.
  
  WARNING: FCV 76 open but cannot deliver flow at 20:38:56 hrs.
  WARNING: FCV 66 open but cannot deliver flow at 20:38:56 hrs.
  WARNING: FCV 3 open but cannot deliver flow at 20:38:56 hrs.
  
  WARNING: FCV 78 open but cannot deliver flow at 20:38:57 hrs.
  WARNING: FCV 74 open but cannot deliver flow at 20:38:57 hrs.
  WARNING: FCV 66 open but cannot deliver flow at 20:38:57 hrs.
  WARNING: FCV 65 open but cannot deliver flow at 20:38:57 hrs.
  WARNING: FCV 40 open but cannot deliver flow at 20:38:57 hrs.
  
  WARNING: Negative pressures at 20:38:58 hrs.
  WARNING: FCV 76 open but cannot deliver flow at 20:38:58 hrs.
  WARNING: FCV 3 open but cannot deliver flow at 20:38:58 hrs.
  WARNING: Node 4 disconnected at 20:38:58 hrs
  WARNING: System disconnected because of Link 1
  
  WARNING: FCV 78 open but cannot deliver flow at 20:38:59 hrs.
  WARNING: FCV 74 open but cannot deliver flow at 20:38:59 hrs.
  WARNING: FCV 66 open but cannot deliver flow at 20:38:59 hrs.
  WARNING: FCV 65 open but cannot deliver flow at 20:38:59 hrs.
  WARNING: FCV 40 open but cannot deliver flow at 20:38:59 hrs.
  
  WARNING: FCV 76 open but cannot deliver flow at 20:39:00 hrs.
  WARNING: FCV 3 open but cannot deliver flow at 20:39:00 hrs.
  
  WARNING: Negative pressures at 20:39:01 hrs.
  WARNING: FCV 78 open but cannot deliver flow at 20:39:01 hrs.
  WARNING: FCV 74 open but cannot deliver flow at 20:39:01 hrs.
  WARNING: FCV 65 open but cannot deliver flow at 20:39:01 hrs.
  WARNING: FCV 40 open but cannot deliver flow at 20:39:01 hrs.
  WARNING: Node 4 disconnected at 20:39:01 hrs
  WARNING: System disconnected because of Link 1
  
  WARNING: FCV 76 open but cannot deliver flow at 20:39:02 hrs.
  WARNING: FCV 66 open but cannot deliver flow at 20:39:02 hrs.
  WARNING: FCV 3 open but cannot deliver flow at 20:39:02 hrs.
  
  WARNING: FCV 78 open but cannot deliver flow at 20:39:03 hrs.
  WARNING: FCV 74 open but cannot deliver flow at 20:39:03 hrs.
  WARNING: FCV 66 open but cannot deliver flow at 20:39:03 hrs.
  WARNING: FCV 65 open but cannot deliver flow at 20:39:03 hrs.
  WARNING: FCV 40 open but cannot deliver flow at 20:39:03 hrs.
  
  WARNING: FCV 76 open but cannot deliver flow at 20:39:04 hrs.
  WARNING: FCV 3 open but cannot deliver flow at 20:39:04 hrs.
  
  WARNING: Negative pressures at 20:39:05 hrs.
  WARNING: FCV 78 open but cannot deliver flow at 20:39:05 hrs.
  WARNING: FCV 74 open but cannot deliver flow at 20:39:05 hrs.
  WARNING: FCV 66 open but cannot deliver flow at 20:39:05 hrs.
  WARNING: FCV 65 open but cannot deliver flow at 20:39:05 hrs.
  WARNING: FCV 40 open but cannot deliver flow at 20:39:05 hrs.
  WARNING: Node 4 disconnected at 20:39:05 hrs
  WARNING: System disconnected because of Link 1
  
  WARNING: FCV 76 open but cannot deliver flow at 20:39:06 hrs.
  WARNING: FCV 3 open but cannot deliver flow at 20:39:06 hrs.
  
  WARNING: FCV 78 open but cannot deliver flow at 20:39:07 hrs.
  WARNING: FCV 74 open but cannot deliver flow at 20:39:07 hrs.
  WARNING: FCV 65 open but cannot deliver flow at 20:39:07 hrs.
  WARNING: FCV 40 open but cannot deliver flow at 20:39:07 hrs.
  
  WARNING: Negative pressures at 20:39:08 hrs.
  WARNING: FCV 76 open but cannot deliver flow at 20:39:08 hrs.
  WARNING: FCV 66 open but cannot deliver flow at 20:39:08 hrs.
  WARNING: FCV 3 open but cannot deliver flow at 20:39:08 hrs.
  WARNING: Node 4 disconnected at 20:39:08 hrs
  WARNING: System disconnected because of Link 1
  
  WARNING: FCV 78 open but cannot deliver flow at 20:39:09 hrs.
  WARNING: FCV 74 open but cannot deliver flow at 20:39:09 hrs.
  WARNING: FCV 66 open but cannot deliver flow at 20:39:09 hrs.
  WARNING: FCV 65 open but cannot deliver flow at 20:39:09 hrs.
  WARNING: FCV 40 open but cannot deliver flow at 20:39:09 hrs.
  
  WARNING: FCV 76 open but cannot deliver flow at 20:39:10 hrs.
  WARNING: FCV 3 open but cannot deliver flow at 20:39:10 hrs.
  
  WARNING: FCV 78 open but cannot deliver flow at 20:39:11 hrs.
  WARNING: FCV 74 open but cannot deliver flow at 20:39:11 hrs.
  WARNING: FCV 66 open but cannot deliver flow at 20:39:11 hrs.
  WARNING: FCV 65 open but cannot deliver flow at 20:39:11 hrs.
  WARNING: FCV 40 open but cannot deliver flow at 20:39:11 hrs.
  
  WARNING: Negative pressures at 20:39:12 hrs.
  WARNING: FCV 76 open but cannot deliver flow at 20:39:12 hrs.
  WARNING: FCV 3 open but cannot deliver flow at 20:39:12 hrs.
  WARNING: Node 4 disconnected at 20:39:12 hrs
  WARNING: System disconnected because of Link 1
  
  WARNING: FCV 78 open but cannot deliver flow at 20:39:13 hrs.
  WARNING: FCV 74 open but cannot deliver flow at 20:39:13 hrs.
  WARNING: FCV 65 open but cannot deliver flow at 20:39:13 hrs.
  WARNING: FCV 40 open but cannot deliver flow at 20:39:13 hrs.
  
  WARNING: FCV 76 open but cannot deliver flow at 20:39:14 hrs.
  WARNING: FCV 66 open but cannot deliver flow at 20:39:14 hrs.
  WARNING: FCV 3 open but cannot deliver flow at 20:39:14 hrs.
  
  WARNING: Negative pressures at 20:39:15 hrs.
  WARNING: FCV 78 open but cannot deliver flow at 20:39:15 hrs.
  WARNING: FCV 74 open but cannot deliver flow at 20:39:15 hrs.
  WARNING: FCV 66 open but cannot deliver flow at 20:39:15 hrs.
  WARNING: FCV 65 open but cannot deliver flow at 20:39:15 hrs.
  WARNING: FCV 40 open but cannot deliver flow at 20:39:15 hrs.
  WARNING: Node 4 disconnected at 20:39:15 hrs
  WARNING: System disconnected because of Link 1
  
  WARNING: FCV 76 open but cannot deliver flow at 20:39:16 hrs.
  WARNING: FCV 3 open but cannot deliver flow at 20:39:16 hrs.
  
  WARNING: FCV 78 open but cannot deliver flow at 20:39:17 hrs.
  WARNING: FCV 74 open but cannot deliver flow at 20:39:17 hrs.
  WARNING: FCV 66 open but cannot deliver flow at 20:39:17 hrs.
  WARNING: FCV 65 open but cannot deliver flow at 20:39:17 hrs.
  WARNING: FCV 40 open but cannot deliver flow at 20:39:17 hrs.
  
  WARNING: Negative pressures at 20:39:18 hrs.
  WARNING: FCV 76 open but cannot deliver flow at 20:39:18 hrs.
  WARNING: FCV 3 open but cannot deliver flow at 20:39:18 hrs.
  WARNING: Node 4 disconnected at 20:39:18 hrs
  WARNING: System disconnected because of Link 1
  
  WARNING: FCV 78 open but cannot deliver flow at 20:39:19 hrs.
  WARNING: FCV 74 open but cannot deliver flow at 20:39:19 hrs.
  WARNING: FCV 65 open but cannot deliver flow at 20:39:19 hrs.
  WARNING: FCV 40 open but cannot deliver flow at 20:39:19 hrs.
  
  WARNING: FCV 76 open but cannot deliver flow at 20:39:20 hrs.
  WARNING: FCV 66 open but cannot deliver flow at 20:39:20 hrs.
  WARNING: FCV 3 open but cannot deliver flow at 20:39:20 hrs.
  
  WARNING: FCV 78 open but cannot deliver flow at 20:39:21 hrs.
  WARNING: FCV 74 open but cannot deliver flow at 20:39:21 hrs.
  WARNING: FCV 66 open but cannot deliver flow at 20:39:21 hrs.
  WARNING: FCV 65 open but cannot deliver flow at 20:39:21 hrs