  Page 1                                    Tue Jun 16 19:13:22 2015

  ******************************************************************
  *                           E P A N E T                          *
  *                   Hydraulic and Water Quality                  *
  *                   Analysis for Pipe Networks                   *
  *                         Version 2.00.12                        *
  ******************************************************************
  
  Analysis begun Tue Jun 16 19:13:22 2015

  Analysis ended Tue Jun 16 19:13:22 2015
