  Page 1                                    Fri Dec  4 15:03:09 2015

  ******************************************************************
  *                           E P A N E T                          *
  *                   Hydraulic and Water Quality                  *
  *                   Analysis for Pipe Networks                   *
  *                         Version 2.00.12                        *
  ******************************************************************
  
  Analysis begun Fri Dec  4 15:03:09 2015

  Analysis ended Fri Dec  4 15:03:09 2015
