  Page 1                                    Thu May  7 12:01:58 2015

  ******************************************************************
  *                           E P A N E T                          *
  *                   Hydraulic and Water Quality                  *
  *                   Analysis for Pipe Networks                   *
  *                         Version 2.00.12                        *
  ******************************************************************
  
  Scenario: Base                    
  Date: 6/2/2014 4:57:00 PM                    
   
      Input Data File ................... temp.inp
      Number of Junctions................ 47
      Number of Reservoirs............... 0
      Number of Tanks ................... 11
      Number of Pipes ................... 44
      Number of Pumps ................... 3
      Number of Valves .................. 12
      Headloss Formula .................. Hazen-Williams
      Hydraulic Timestep ................ 10.00 min
      Hydraulic Accuracy ................ 0.001000
      Status Check Frequency ............ 2
      Maximum Trials Checked ............ 10
      Damping Limit Threshold ........... 0.000000
      Maximum Trials .................... 40
      Quality Analysis .................. None
      Specific Gravity .................. 1.00
      Relative Kinematic Viscosity ...... 1.00
      Relative Chemical Diffusivity ..... 1.00
      Demand Multiplier ................. 1.00
      Total Duration .................... 1440.00 min
      Reporting Criteria:
         All Nodes
         All Links
   
   
   
  Energy Usage:
  ----------------------------------------------------------------
             Usage   Avg.     Kw-hr      Avg.      Peak      Cost
  Pump      Factor Effic.       /m3        Kw        Kw      /day
  ----------------------------------------------------------------
  62         24.00  18.00    233.93   1445.67     60.24      0.00
  61          0.00   0.00      0.00      0.00      0.00      0.00
  60         24.00  18.00    233.93   1445.67     60.24      0.00
  ----------------------------------------------------------------
                                         Demand Charge:      0.00
                                         Total Cost:         0.00
   
   
  Node Results at 0:00:00 hrs:
  ------------------------------------------------------------------
                  Elevation    Demand      Head  Pressure  Chemical
  Node                    m       L/s         m         m      mg/L
  ------------------------------------------------------------------
  21                 758.30      0.00    777.35     19.02      0.00
  19                 749.13      0.00    762.13     12.98      0.00
  17                 742.02      0.00    754.58     12.54      0.00
  15                 741.85      0.00    757.86     15.98      0.00
  13                 756.95      0.00    766.97     10.00      0.00
  11                 741.41      0.00    754.43     12.99      0.00
  9                  740.29      0.00    753.30     12.98      0.00
  6                  725.65      0.00    738.73     13.05      0.00
  5                  725.03      0.00    738.06     13.01      0.00
  3                  741.12      0.00    757.15     16.00      0.00
  1                  738.58      0.00    754.58     15.97      0.00
  52                 758.30      0.00  1.40e+08  1.40e+08      0.00
  20                 741.41      6.69    754.41     12.97      0.00
  18                 740.29      7.60    753.29     12.97      0.00
  16                 725.65      3.58    738.65     12.97      0.00
  14                 725.03      4.80    738.03     12.97      0.00
  12                 738.58     23.33    754.58     15.96      0.00
  10                 749.13      7.40    762.13     12.97      0.00
  8                  741.85     13.64    757.85     15.97      0.00
  7                  742.02      5.80    752.02      9.98      0.00
  4                  756.95      6.00    766.91      9.94      0.00
  2                  741.12      8.80    757.10     15.95      0.00
  DMA4700_SubashnagarExOHT    725.65      0.00    763.92     38.19      0.00
  DMA4748A_RajendranagarExOHT    741.41      0.00    775.11     33.63      0.00
  DMA4748_RajendranagarNewOHT    740.29      0.00    775.19     34.83      0.00
  DMA4600_KesareExOHT    725.03      0.00    766.21     41.10      0.00
  DMA4150_VeeranagereExOHT    749.13      0.00    762.13     12.98      0.00
  DMA4849_NRMohallaExOHT    742.02      0.00    760.48     18.42      0.00
  DMA4950_NRMohallaNewOHT    741.85      0.00    760.48     18.59      0.00
  DMA5200_UdayagiriNewOHT    741.12      0.00    760.73     19.57      0.00
  DMA5300RajivnagarIIStageExOHT    738.58      0.00    775.92     37.27      0.00
  DVRJ-11            748.00      0.00    762.21     14.19      0.00
  DVRJ-8             755.00      0.00    763.69      8.68      0.00
  DMA5400_RajivnagarIStageNewOHT    756.95      0.00    776.50     19.51      0.00
  DVRJ-4             725.38      0.00    776.06     50.58      0.00
  DVRJ-1             757.50      0.00    777.28     19.74      0.00
  DVRJ-2             757.50      0.00    777.28     19.74      0.00
  DVRJ-3             757.50      0.00    777.27     19.73      0.00
  DVRJ-5             735.74      0.00    769.47     33.66      0.00
  DVRJ-6             740.59      0.00    775.20     34.55      0.00
  DVRJ-12            748.23      0.00    762.21     13.95      0.00
  DVRJ-13            736.86      0.00    760.76     23.86      0.00
  DVRJ-10            740.78      0.00    762.23     21.41      0.00
  DVRJ-7             756.90      0.00    776.53     19.59      0.00
  DVRJ-9             738.31      0.00    762.57     24.20      0.00
  301-B              758.67   -350.00  1.40e+08  1.40e+08      0.00
  22                 756.90      0.00    764.06      7.15      0.00
  34                 758.30      2.33    777.30     18.96      0.00  Tank
  Rajendra_nagar2    741.41     26.75    754.41     12.97      0.00  Tank
  Rajendra_nagar1    740.29     30.40    753.29     12.97      0.00  Tank
  Bademakan          725.65     14.32    738.65     12.97      0.00  Tank
  Kesare             725.03     19.20    738.03     12.97      0.00  Tank
  Rajeev_Nagar_I     738.58     -0.03    754.58     15.97      0.00  Tank
  Veeranageeri       749.13      5.93    762.13     12.97      0.00  Tank
  NR_mohalla2        742.02     23.20    752.02      9.98      0.00  Tank
  NR_Mohalla1        741.85     54.56    757.85     15.97      0.00  Tank
  Rajiv_nagar_II     756.95     50.50    766.95      9.98      0.00  Tank
  Tippu_Park         741.12     35.20    757.12     15.97      0.00  Tank
   
   
  Link Results at 0:00:00 hrs:
  --------------------------------------------------------
                       Flow  Velocity  Headloss   Setting
  Link                  L/s       m/s    /1000m          
  --------------------------------------------------------
  DVRTMP23            56.50      0.80      2.23    130.00
  DVRTMP4            211.03      0.81      1.08    130.00
  84                 350.00      1.78      5.43    130.00
  79                  13.33      0.19      0.16    130.00
  77                  29.00      0.59      2.56    100.00
  75                  68.20      0.71      1.50    130.00
  73                  56.50      0.80      2.23    130.00
  71                  33.44      0.68      2.05    130.00
  69                  38.00      0.39      0.51    130.00
  67                  17.90      1.01      7.78    130.00
  64                  24.00      0.76      3.30    130.00
  55                  44.00      0.90      3.42    130.00
  11                  23.30      0.33      0.43    130.00
  20                   6.69      0.14      0.10    130.00
  18                   7.60      0.08      0.02    130.00
  16                   3.58      0.20      0.39    130.00
  14                   4.80      0.15      0.16    130.00
  12                  23.33      0.33      0.44    130.00
  10                   7.40      0.10      0.05    130.00
  8                    5.80      0.12      0.08    130.00
  7                   13.64      0.14      0.07    130.00
  1                    6.00      0.08      0.04    130.00
  2                    8.80      0.50      2.08    130.00
  DVRTMP18            13.33      0.12      0.05    130.00
  DVRTMP17            13.33      0.08      0.02    130.00
  DVRTMP14           154.53      0.88      1.55    130.00
  DVRTMP13           154.53      0.60      0.60    130.00
  DVRTMP10            17.90      1.01      7.77    130.00
  DVRTMP9             24.00      0.76      3.29    130.00
  DVRTMP8             41.90      0.85      3.12    130.00
  DVRTMP7             23.30      0.33      0.43    130.00
  DVRTMP6             65.20      0.68      1.37    130.00
  DVRTMP1             65.20      0.68      1.37    130.00
  DVRTMP2             71.44      0.74      1.62    130.00
  DVRTMP3            211.03      1.07      2.13    130.00
  DVRTMP12            33.44      0.68      2.05    130.00
  DVRTMP11            38.00      0.39      0.51    130.00
  DVRTMP5             71.44      0.51      0.64    130.00
  DVRTMP19            13.33      0.19      0.15    130.00
  DVRTMP22            68.20      0.71      1.49    130.00
  DVRTMP21            29.00      0.59      1.58    130.00
  DVRTMP20            97.20      0.69      1.13    130.00
  DVRTMP15           110.53      0.63      0.83    130.00
  DVRTMP16            44.00      0.90      3.41    130.00
  62                 175.00      0.00    -19.51      1.00  Pump
  61                   0.00      0.00      0.00      1.00  Pump
  60                 175.00      0.00    -19.51      1.00  Pump
  80                 350.00      1.78  1.40e+08    220.00  FCV
  78                  13.33      0.19      0.00      0.00  FCV
  76                  29.00      0.59      5.90     29.00  FCV
  74                  68.20      0.71      2.61     68.20  FCV
  72                  56.50      0.80      9.52     56.50  FCV
  70                  33.44      0.68     20.67     33.44  FCV
  68                  38.00      0.39     21.89     38.00  FCV
  66                  17.90      1.01     25.19     17.90  FCV
  65                  24.00      0.76     28.15     24.00  FCV
  40                  44.00      0.90      3.57     44.00  FCV
  35                  23.30      0.33     21.34     23.30  FCV
  3                  154.53      0.60     12.47    154.53  FCV
   
   
  Node Results at 1:00:00 hrs:
  ------------------------------------------------------------------
                  Elevation    Demand      Head  Pressure  Chemical
  Node                    m       L/s         m         m      mg/L
  ------------------------------------------------------------------
  21                 758.30      0.00    777.41     19.07      0.00
  19                 749.13      0.00    762.39     13.23      0.00
  17                 742.02      0.00    756.58     14.53      0.00
  15                 741.85      0.00    759.05     17.17      0.00
  13                 756.95      0.00    767.77     10.80      0.00
  11                 741.41      0.00    755.01     13.58      0.00
  9                  740.29      0.00    753.78     13.46      0.00
  6                  725.65      0.00    739.35     13.67      0.00
  5                  725.03      0.00    738.89     13.83      0.00
  3                  741.12      0.00    757.92     16.77      0.00
  1                  738.58      0.00    754.58     15.97      0.00
  52                 758.30      0.00  1.40e+08  1.40e+08      0.00
  20                 741.41      6.69    754.99     13.56      0.00
  18                 740.29      7.60    753.77     13.45      0.00
  16                 725.65      3.58    739.26     13.59      0.00
  14                 725.03      4.80    738.86     13.80      0.00
  12                 738.58     23.33    754.58     15.96      0.00
  10                 749.13      7.40    762.39     13.23      0.00
  8                  741.85     13.64    759.04     17.15      0.00
  7                  742.02      5.80    754.01     11.97      0.00
  4                  756.95      6.00    767.72     10.74      0.00
  2                  741.12      8.80    757.87     16.71      0.00
  DMA4700_SubashnagarExOHT    725.65      0.00    763.97     38.25      0.00
  DMA4748A_RajendranagarExOHT    741.41      0.00    775.16     33.68      0.00
  DMA4748_RajendranagarNewOHT    740.29      0.00    775.24     34.88      0.00
  DMA4600_KesareExOHT    725.03      0.00    766.26     41.15      0.00
  DMA4150_VeeranagereExOHT    749.13      0.00    762.39     13.23      0.00
  DMA4849_NRMohallaExOHT    742.02      0.00    760.74     18.68      0.00
  DMA4950_NRMohallaNewOHT    741.85      0.00    760.73     18.84      0.00
  DMA5200_UdayagiriNewOHT    741.12      0.00    760.98     19.82      0.00
  DMA5300RajivnagarIIStageExOHT    738.58      0.00    775.97     37.32      0.00
  DVRJ-11            748.00      0.00    762.47     14.44      0.00
  DVRJ-8             755.00      0.00    763.95      8.93      0.00
  DMA5400_RajivnagarIStageNewOHT    756.95      0.00    776.55     19.56      0.00
  DVRJ-4             725.38      0.00    776.11     50.63      0.00
  DVRJ-1             757.50      0.00    777.33     19.79      0.00
  DVRJ-2             757.50      0.00    777.33     19.79      0.00
  DVRJ-3             757.50      0.00    777.32     19.78      0.00
  DVRJ-5             735.74      0.00    769.52     33.71      0.00
  DVRJ-6             740.59      0.00    775.26     34.60      0.00
  DVRJ-12            748.23      0.00    762.46     14.20      0.00
  DVRJ-13            736.86      0.00    761.02     24.11      0.00
  DVRJ-10            740.78      0.00    762.49     21.66      0.00
  DVRJ-7             756.90      0.00    776.58     19.64      0.00
  DVRJ-9             738.31      0.00    762.82     24.46      0.00
  301-B              758.67   -350.00  1.40e+08  1.40e+08      0.00
  22                 756.90      0.00    764.32      7.40      0.00
  34                 758.30      2.33    777.35     19.01      0.00  Tank
  Rajendra_nagar2    741.41     26.75    754.99     13.56      0.00  Tank
  Rajendra_nagar1    740.29     30.40    753.77     13.46      0.00  Tank
  Bademakan          725.65     14.32    739.27     13.59      0.00  Tank
  Kesare             725.03     19.20    738.86     13.80      0.00  Tank
  Rajeev_Nagar_I     738.58     -0.03    754.58     15.97      0.00  Tank
  Veeranageeri       749.13      5.93    762.39     13.23      0.00  Tank
  NR_mohalla2        742.02     23.20    754.02     11.97      0.00  Tank
  NR_Mohalla1        741.85     54.56    759.04     17.16      0.00  Tank
  Rajiv_nagar_II     756.95     50.50    767.75     10.78      0.00  Tank
  Tippu_Park         741.12     35.20    757.89     16.73      0.00  Tank
   
   
  Link Results at 1:00:00 hrs:
  --------------------------------------------------------
                       Flow  Velocity  Headloss   Setting
  Link                  L/s       m/s    /1000m          
  --------------------------------------------------------
  DVRTMP23            56.50      0.80      2.23    130.00
  DVRTMP4            211.03      0.81      1.08    130.00
  84                 350.00      1.78      5.43    130.00
  79                  13.33      0.19      0.16    130.00
  77                  29.00      0.59      2.56    100.00
  75                  68.20      0.71      1.50    130.00
  73                  56.50      0.80      2.23    130.00
  71                  33.44      0.68      2.05    130.00
  69                  38.00      0.39      0.50    130.00
  67                  17.90      1.01      7.77    130.00
  64                  24.00      0.76      3.30    130.00
  55                  44.00      0.90      3.42    130.00
  11                  23.30      0.33      0.43    130.00
  20                   6.69      0.14      0.10    130.00
  18                   7.60      0.08      0.03    130.00
  16                   3.58      0.20      0.40    130.00
  14                   4.80      0.15      0.16    130.00
  12                  23.33      0.33      0.43    130.00
  10                   7.40      0.10      0.05    130.00
  8                    5.80      0.12      0.08    130.00
  7                   13.64      0.14      0.07    130.00
  1                    6.00      0.08      0.04    130.00
  2                    8.80      0.50      2.08    130.00
  DVRTMP18            13.33      0.12      0.05    130.00
  DVRTMP17            13.33      0.08      0.02    130.00
  DVRTMP14           154.53      0.88      1.55    130.00
  DVRTMP13           154.53      0.60      0.61    130.00
  DVRTMP10            17.90      1.01      7.77    130.00
  DVRTMP9             24.00      0.76      3.29    130.00
  DVRTMP8             41.90      0.85      3.12    130.00
  DVRTMP7             23.30      0.33      0.43    130.00
  DVRTMP6             65.20      0.68      1.37    130.00
  DVRTMP1             65.20      0.68      1.38    130.00
  DVRTMP2             71.44      0.74      1.63    130.00
  DVRTMP3            211.03      1.07      2.13    130.00
  DVRTMP12            33.44      0.68      2.05    130.00
  DVRTMP11            38.00      0.39      0.51    130.00
  DVRTMP5             71.44      0.51      0.64    130.00
  DVRTMP19            13.33      0.19      0.15    130.00
  DVRTMP22            68.20      0.71      1.49    130.00
  DVRTMP21            29.00      0.59      1.58    130.00
  DVRTMP20            97.20      0.69      1.13    130.00
  DVRTMP15           110.53      0.63      0.83    130.00
  DVRTMP16            44.00      0.90      3.41    130.00
  62                 175.00      0.00    -19.51      1.00  Pump
  61                   0.00      0.00      0.00      1.00  Pump
  60                 175.00      0.00    -19.51      1.00  Pump
  80                 350.00      1.78  1.40e+08    220.00  FCV
  78                  13.33      0.19      0.00      0.00  FCV
  76                  29.00      0.59      4.16     29.00  FCV
  74                  68.20      0.71      1.68     68.20  FCV
  72                  56.50      0.80      8.77     56.50  FCV
  70                  33.44      0.68     20.14     33.44  FCV
  68                  38.00      0.39     21.46     38.00  FCV
  66                  17.90      1.01     24.63     17.90  FCV
  65                  24.00      0.76     27.37     24.00  FCV
  40                  44.00      0.90      3.06     44.00  FCV
  35                  23.30      0.33     21.39     23.30  FCV
  3                  154.53      0.60     12.26    154.53  FCV
   
   
  Node Results at 2:00:00 hrs:
  ------------------------------------------------------------------
                  Elevation    Demand      Head  Pressure  Chemical
  Node                    m       L/s         m         m      mg/L
  ------------------------------------------------------------------
  21                 758.30      0.00    777.46     19.12      0.00
  19                 749.13      0.00    762.64     13.49      0.00
  17                 742.02      0.00    758.58     16.52      0.00
  15                 741.85      0.00    760.24     18.36      0.00
  13                 756.95      0.00    768.57     11.60      0.00
  11                 741.41      0.00    755.60     14.16      0.00
  9                  740.29      0.00    754.26     13.94      0.00
  6                  725.65      0.00    739.97     14.29      0.00
  5                  725.03      0.00    739.72     14.66      0.00
  3                  741.12      0.00    758.69     17.53      0.00
  1                  738.58      0.00    754.58     15.97      0.00
  52                 758.30      0.00  1.40e+08  1.40e+08      0.00
  20                 741.41     13.38    755.57     14.13      0.00
  18                 740.29     15.20    754.25     13.94      0.00
  16                 725.65      7.16    739.87     14.19      0.00
  14                 725.03      9.60    739.68     14.62      0.00
  12                 738.58     23.33    754.57     15.96      0.00
  10                 749.13     14.80    762.64     13.48      0.00
  8                  741.85     27.28    760.23     18.34      0.00
  7                  742.02     11.60    756.01     13.96      0.00
  4                  756.95     12.00    768.43     11.45      0.00
  2                  741.12     17.60    758.58     17.42      0.00
  DMA4700_SubashnagarExOHT    725.65      0.00    764.02     38.30      0.00
  DMA4748A_RajendranagarExOHT    741.41      0.00    775.21     33.73      0.00
  DMA4748_RajendranagarNewOHT    740.29      0.00    775.29     34.93      0.00
  DMA4600_KesareExOHT    725.03      0.00    766.31     41.20      0.00
  DMA4150_VeeranagereExOHT    749.13      0.00    762.64     13.49      0.00
  DMA4849_NRMohallaExOHT    742.02      0.00    760.99     18.94      0.00
  DMA4950_NRMohallaNewOHT    741.85      0.00    760.99     19.10      0.00
  DMA5200_UdayagiriNewOHT    741.12      0.00    761.24     20.08      0.00
  DMA5300RajivnagarIIStageExOHT    738.58      0.00    776.02     37.37      0.00
  DVRJ-11            748.00      0.00    762.73     14.70      0.00
  DVRJ-8             755.00      0.00    764.21      9.19      0.00
  DMA5400_RajivnagarIStageNewOHT    756.95      0.00    776.60     19.61      0.00
  DVRJ-4             725.38      0.00    776.16     50.68      0.00
  DVRJ-1             757.50      0.00    777.38     19.84      0.00
  DVRJ-2             757.50      0.00    777.38     19.84      0.00
  DVRJ-3             757.50      0.00    777.37     19.83      0.00
  DVRJ-5             735.74      0.00    769.57     33.76      0.00
  DVRJ-6             740.59      0.00    775.31     34.65      0.00
  DVRJ-12            748.23      0.00    762.72     14.46      0.00
  DVRJ-13            736.86      0.00    761.27     24.37      0.00
  DVRJ-10            740.78      0.00    762.75     21.92      0.00
  DVRJ-7             756.90      0.00    776.63     19.69      0.00
  DVRJ-9             738.31      0.00    763.08     24.71      0.00
  301-B              758.67   -350.00  1.40e+08  1.40e+08      0.00
  22                 756.90      0.00    764.57      7.66      0.00
  34                 758.30      2.33    777.40     19.06      0.00  Tank
  Rajendra_nagar2    741.41     20.06    755.58     14.14      0.00  Tank
  Rajendra_nagar1    740.29     22.80    754.25     13.94      0.00  Tank
  Bademakan          725.65     10.74    739.89     14.21      0.00  Tank
  Kesare             725.03     14.40    739.69     14.63      0.00  Tank
  Rajeev_Nagar_I     738.58     -0.03    754.58     15.97      0.00  Tank
  Veeranageeri       749.13     -1.47    762.64     13.49      0.00  Tank
  NR_mohalla2        742.02     17.40    756.01     13.96      0.00  Tank
  NR_Mohalla1        741.85     40.92    760.23     18.34      0.00  Tank
  Rajiv_nagar_II     756.95     44.50    768.55     11.58      0.00  Tank
  Tippu_Park         741.12     26.40    758.65     17.50      0.00  Tank
   
   
  Link Results at 2:00:00 hrs:
  --------------------------------------------------------
                       Flow  Velocity  Headloss   Setting
  Link                  L/s       m/s    /1000m          
  --------------------------------------------------------
  DVRTMP23            56.50      0.80      2.23    130.00
  DVRTMP4            211.03      0.81      1.08    130.00
  84                 350.00      1.78      5.43    130.00
  79                  13.33      0.19      0.16    130.00
  77                  29.00      0.59      2.56    100.00
  75                  68.20      0.71      1.49    130.00
  73                  56.50      0.80      2.23    130.00
  71                  33.44      0.68      2.05    130.00
  69                  38.00      0.39      0.51    130.00
  67                  17.90      1.01      7.77    130.00
  64                  24.00      0.76      3.30    130.00
  55                  44.00      0.90      3.42    130.00
  11                  23.30      0.33      0.43    130.00
  20                  13.38      0.27      0.37    130.00
  18                  15.20      0.16      0.10    130.00
  16                   7.16      0.41      1.43    130.00
  14                   9.60      0.31      0.60    130.00
  12                  23.33      0.33      0.43    130.00
  10                  14.80      0.21      0.19    130.00
  8                   11.60      0.24      0.29    130.00
  7                   27.28      0.28      0.28    130.00
  1                   12.00      0.17      0.13    130.00
  2                   17.60      1.00      7.53    130.00
  DVRTMP18            13.33      0.12      0.05    130.00
  DVRTMP17            13.33      0.08      0.02    130.00
  DVRTMP14           154.53      0.88      1.55    130.00
  DVRTMP13           154.53      0.60      0.60    130.00
  DVRTMP10            17.90      1.01      7.77    130.00
  DVRTMP9             24.00      0.76      3.29    130.00
  DVRTMP8             41.90      0.85      3.12    130.00
  DVRTMP7             23.30      0.33      0.43    130.00
  DVRTMP6             65.20      0.68      1.37    130.00
  DVRTMP1             65.20      0.68      1.37    130.00
  DVRTMP2             71.44      0.74      1.63    130.00
  DVRTMP3            211.03      1.07      2.13    130.00
  DVRTMP12            33.44      0.68      2.05    130.00
  DVRTMP11            38.00      0.39      0.51    130.00
  DVRTMP5             71.44      0.51      0.64    130.00
  DVRTMP19            13.33      0.19      0.15    130.00
  DVRTMP22            68.20      0.71      1.49    130.00
  DVRTMP21            29.00      0.59      1.58    130.00
  DVRTMP20            97.20      0.69      1.13    130.00
  DVRTMP15           110.53      0.63      0.83    130.00
  DVRTMP16            44.00      0.90      3.41    130.00
  62                 175.00      0.00    -19.51      1.00  Pump
  61                   0.00      0.00      0.00      1.00  Pump
  60                 175.00      0.00    -19.51      1.00  Pump
  80                 350.00      1.78  1.40e+08    220.00  FCV
  78                  13.33      0.19      0.00      0.00  FCV
  76                  29.00      0.59      2.42     29.00  FCV
  74                  68.20      0.71      0.74     68.20  FCV
  72                  56.50      0.80      8.02     56.50  FCV
  70                  33.44      0.68     19.61     33.44  FCV
  68                  38.00      0.39     21.03     38.00  FCV
  66                  17.90      1.01     24.06     17.90  FCV
  65                  24.00      0.76     26.59     24.00  FCV
  40                  44.00      0.90      2.55     44.00  FCV
  35                  23.30      0.33     21.44     23.30  FCV
  3                  154.53      0.60     12.06    154.53  FCV
   
   
  Node Results at 3:00:00 hrs:
  ------------------------------------------------------------------
                  Elevation    Demand      Head  Pressure  Chemical
  Node                    m       L/s         m         m      mg/L
  ------------------------------------------------------------------
  21                 758.30      0.00    777.51     19.17      0.00
  19                 749.13      0.00    762.11     12.96      0.00
  17                 742.02      0.00    759.32     17.27      0.00
  15                 741.85      0.00    760.68     18.80      0.00
  13                 756.95      0.00    769.14     12.16      0.00
  11                 741.41      0.00    755.82     14.38      0.00
  9                  740.29      0.00    754.44     14.12      0.00
  6                  725.65      0.00    740.20     14.52      0.00
  5                  725.03      0.00    740.03     14.97      0.00
  3                  741.12      0.00    758.98     17.82      0.00
  1                  738.58      0.00    754.58     15.97      0.00
  52                 758.30      0.00  1.40e+08  1.40e+08      0.00
  20                 741.41     66.88    755.72     14.28      0.00
  18                 740.29     76.00    754.42     14.10      0.00
  16                 725.65     35.80    739.84     14.16      0.00
  14                 725.03     48.00    739.88     14.82      0.00
  12                 738.58     23.33    754.57     15.96      0.00
  10                 749.13     74.00    762.07     12.92      0.00
  8                  741.85    136.40    760.62     18.73      0.00
  7                  742.02     58.00    756.70     14.65      0.00
  4                  756.95     60.00    766.62      9.65      0.00
  2                  741.12     88.00    757.46     16.31      0.00
  DMA4700_SubashnagarExOHT    725.65      0.00    764.07     38.35      0.00
  DMA4748A_RajendranagarExOHT    741.41      0.00    775.26     33.78      0.00
  DMA4748_RajendranagarNewOHT    740.29      0.00    775.34     34.98      0.00
  DMA4600_KesareExOHT    725.03      0.00    766.36     41.25      0.00
  DMA4150_VeeranagereExOHT    749.13      0.00    762.11     12.96      0.00
  DMA4849_NRMohallaExOHT    742.02      0.00    760.66     18.60      0.00
  DMA4950_NRMohallaNewOHT    741.85      0.00    760.68     18.80      0.00
  DMA5200_UdayagiriNewOHT    741.12      0.00    760.78     19.62      0.00
  DMA5300RajivnagarIIStageExOHT    738.58      0.00    776.07     37.42      0.00
  DVRJ-11            748.00      0.00    762.25     14.22      0.00
  DVRJ-8             755.00      0.00    763.75      8.73      0.00
  DMA5400_RajivnagarIStageNewOHT    756.95      0.00    776.65     19.66      0.00
  DVRJ-4             725.38      0.00    776.22     50.73      0.00
  DVRJ-1             757.50      0.00    777.43     19.89      0.00
  DVRJ-2             757.50      0.00    777.43     19.89      0.00
  DVRJ-3             757.50      0.00    777.42     19.88      0.00
  DVRJ-5             735.74      0.00    769.62     33.81      0.00
  DVRJ-6             740.59      0.00    775.36     34.70      0.00
  DVRJ-12            748.23      0.00    762.24     13.98      0.00
  DVRJ-13            736.86      0.00    760.94     24.03      0.00
  DVRJ-10            740.78      0.00    762.29     21.46      0.00
  DVRJ-7             756.90      0.00    776.68     19.74      0.00
  DVRJ-9             738.31      0.00    762.62     24.26      0.00
  301-B              758.67   -350.00  1.40e+08  1.40e+08      0.00
  22                 756.90      0.00    764.11      7.20      0.00
  34                 758.30      2.33    777.45     19.11      0.00  Tank
  Rajendra_nagar2    741.41    -33.44    755.80     14.36      0.00  Tank
  Rajendra_nagar1    740.29    -38.00    754.44     14.12      0.00  Tank
  Bademakan          725.65    -17.90    740.12     14.44      0.00  Tank
  Kesare             725.03    -24.00    740.00     14.94      0.00  Tank
  Rajeev_Nagar_I     738.58     -0.03    754.58     15.97      0.00  Tank
  Veeranageeri       749.13    -56.26    762.11     12.95      0.00  Tank
  NR_mohalla2        742.02    -29.00    756.76     14.71      0.00  Tank
  NR_Mohalla1        741.85    -72.61    760.67     18.78      0.00  Tank
  Rajiv_nagar_II     756.95     -3.50    769.11     12.14      0.00  Tank
  Tippu_Park         741.12    -44.00    758.94     17.79      0.00  Tank
   
   
  Link Results at 3:00:00 hrs:
  --------------------------------------------------------
                       Flow  Velocity  Headloss   Setting
  Link                  L/s       m/s    /1000m          
  --------------------------------------------------------
  DVRTMP23            56.50      0.80      2.23    130.00
  DVRTMP4            211.03      0.81      1.08    130.00
  84                 350.00      1.78      5.43    130.00
  79                  17.74      0.25      0.26    130.00
  77                  29.00      0.59      2.56    100.00
  75                  63.79      0.66      1.32    130.00
  73                  56.50      0.80      2.23    130.00
  71                  33.44      0.68      2.05    130.00
  69                  38.00      0.39      0.51    130.00
  67                  17.90      1.01      7.77    130.00
  64                  24.00      0.76      3.30    130.00
  55                  44.00      0.90      3.42    130.00
  11                  23.30      0.33      0.43    130.00
  20                  66.88      1.36      7.41    130.00
  18                  76.00      0.79      1.82    130.00
  16                  35.80      2.03     28.06    130.00
  14                  48.00      1.53     11.89    130.00
  12                  23.33      0.33      0.43    130.00
  10                  74.00      1.05      3.68    130.00
  8                   58.00      1.18      5.69    130.00
  7                  136.40      1.42      5.39    130.00
  1                   60.00      0.85      2.50    130.00
  2                   88.00      4.98    148.40    130.00
  DVRTMP18            17.74      0.16      0.09    130.00
  DVRTMP17            17.74      0.10      0.03    130.00
  DVRTMP14           154.53      0.88      1.55    130.00
  DVRTMP13           154.53      0.60      0.61    130.00
  DVRTMP10            17.90      1.01      7.77    130.00
  DVRTMP9             24.00      0.76      3.29    130.00
  DVRTMP8             41.90      0.85      3.12    130.00
  DVRTMP7             23.30      0.33      0.43    130.00
  DVRTMP6             65.20      0.68      1.37    130.00
  DVRTMP1             65.20      0.68      1.37    130.00
  DVRTMP2             71.44      0.74      1.62    130.00
  DVRTMP3            211.03      1.07      2.13    130.00
  DVRTMP12            33.44      0.68      2.05    130.00
  DVRTMP11            38.00      0.39      0.51    130.00
  DVRTMP5             71.44      0.51      0.64    130.00
  DVRTMP19            17.74      0.25      0.26    130.00
  DVRTMP22            63.79      0.66      1.32    130.00
  DVRTMP21            29.00      0.59      1.58    130.00
  DVRTMP20            92.79      0.66      1.04    130.00
  DVRTMP15           110.53      0.63      0.83    130.00
  DVRTMP16            44.00      0.90      3.41    130.00
  62                 175.00      0.00    -19.51      1.00  Pump
  61                   0.00      0.00      0.00      1.00  Pump
  60                 175.00      0.00    -19.51      1.00  Pump
  80                 350.00      1.78  1.40e+08    220.00  FCV
  78                  17.74      0.25      0.00      0.00  FCV
  76                  29.00      0.59      1.33     29.00  FCV
  74                  63.79      0.66      0.00     68.20  FCV
  72                  56.50      0.80      7.51     56.50  FCV
  70                  33.44      0.68     19.44     33.44  FCV
  68                  38.00      0.39     20.90     38.00  FCV
  66                  17.90      1.01     23.88     17.90  FCV
  65                  24.00      0.76     26.33     24.00  FCV
  40                  44.00      0.90      1.80     44.00  FCV
  35                  23.30      0.33     21.49     23.30  FCV
  3                  154.53      0.60     12.57    154.53  FCV
   
   
  Node Results at 4:00:00 hrs:
  ------------------------------------------------------------------
                  Elevation    Demand      Head  Pressure  Chemical
  Node                    m       L/s         m         m      mg/L
  ------------------------------------------------------------------
  21                 758.30      0.00    777.56     19.22      0.00
  19                 749.13      0.00    761.20     12.04      0.00
  17                 742.02      0.00    756.21     14.16      0.00
  15                 741.85      0.00    758.72     16.84      0.00
  13                 756.95      0.00    768.96     11.99      0.00
  11                 741.41      0.00    754.90     13.47      0.00
  9                  740.29      0.00    753.69     13.37      0.00
  6                  725.65      0.00    739.23     13.55      0.00
  5                  725.03      0.00    738.74     13.68      0.00
  3                  741.12      0.00    757.78     16.62      0.00
  1                  738.58      0.00    754.58     15.97      0.00
  52                 758.30      0.00  1.40e+08  1.40e+08      0.00
  20                 741.41     83.60    754.77     13.34      0.00
  18                 740.29     95.00    753.65     13.34      0.00
  16                 725.65     44.75    738.73     13.05      0.00
  14                 725.03     60.00    738.52     13.47      0.00
  12                 738.58     23.33    754.57     15.96      0.00
  10                 749.13     92.50    761.14     11.99      0.00
  8                  741.85    170.50    758.63     16.74      0.00
  7                  742.02     72.50    753.56     11.51      0.00
  4                  756.95     75.00    765.17      8.20      0.00
  2                  741.12    110.00    755.50     14.35      0.00
  DMA4700_SubashnagarExOHT    725.65      0.00    764.12     38.40      0.00
  DMA4748A_RajendranagarExOHT    741.41      0.00    775.31     33.83      0.00
  DMA4748_RajendranagarNewOHT    740.29      0.00    775.39     35.03      0.00
  DMA4600_KesareExOHT    725.03      0.00    766.41     41.30      0.00
  DMA4150_VeeranagereExOHT    749.13      0.00    761.20     12.04      0.00
  DMA4849_NRMohallaExOHT    742.02      0.00    759.55     17.49      0.00
  DMA4950_NRMohallaNewOHT    741.85      0.00    759.54     17.65      0.00
  DMA5200_UdayagiriNewOHT    741.12      0.00    759.79     18.63      0.00
  DMA5300RajivnagarIIStageExOHT    738.58      0.00    776.12     37.47      0.00
  DVRJ-11            748.00      0.00    761.28     13.25      0.00
  DVRJ-8             755.00      0.00    762.76      7.74      0.00
  DMA5400_RajivnagarIStageNewOHT    756.95      0.00    776.70     19.71      0.00
  DVRJ-4             725.38      0.00    776.27     50.78      0.00
  DVRJ-1             757.50      0.00    777.48     19.94      0.00
  DVRJ-2             757.50      0.00    777.48     19.94      0.00
  DVRJ-3             757.50      0.00    777.47     19.93      0.00
  DVRJ-5             735.74      0.00    769.67     33.86      0.00
  DVRJ-6             740.59      0.00    775.41     34.75      0.00
  DVRJ-12            748.23      0.00    761.27     13.01      0.00
  DVRJ-13            736.86      0.00    759.83     22.92      0.00
  DVRJ-10            740.78      0.00    761.30     20.47      0.00
  DVRJ-7             756.90      0.00    776.73     19.79      0.00
  DVRJ-9             738.31      0.00    761.63     23.27      0.00
  301-B              758.67   -350.00  1.40e+08  1.40e+08      0.00
  22                 756.90      0.00    763.13      6.21      0.00
  34                 758.30      2.33    777.50     19.16      0.00  Tank
  Rajendra_nagar2    741.41    -50.16    754.88     13.45      0.00  Tank
  Rajendra_nagar1    740.29    -57.00    753.68     13.36      0.00  Tank
  Bademakan          725.65    -26.85    739.15     13.48      0.00  Tank
  Kesare             725.03    -36.00    738.70     13.65      0.00  Tank
  Rajeev_Nagar_I     738.58     -0.03    754.58     15.97      0.00  Tank
  Veeranageeri       749.13    -79.17    761.20     12.04      0.00  Tank
  NR_mohalla2        742.02    -43.50    753.64     11.60      0.00  Tank
  NR_Mohalla1        741.85   -102.30    758.71     16.83      0.00  Tank
  Rajiv_nagar_II     756.95    -18.50    768.94     11.97      0.00  Tank
  Tippu_Park         741.12    -66.00    757.74     16.59      0.00  Tank
   
   
  Link Results at 4:00:00 hrs:
  --------------------------------------------------------
                       Flow  Velocity  Headloss   Setting
  Link                  L/s       m/s    /1000m          
  --------------------------------------------------------
  DVRTMP23            56.50      0.80      2.23    130.00
  DVRTMP4            211.03      0.81      1.08    130.00
  84                 350.00      1.78      5.43    130.00
  79                  13.33      0.19      0.16    130.00
  77                  29.00      0.59      2.56    100.00
  75                  68.20      0.71      1.49    130.00
  73                  56.50      0.80      2.23    130.00
  71                  33.44      0.68      2.05    130.00
  69                  38.00      0.39      0.51    130.00
  67                  17.90      1.01      7.77    130.00
  64                  24.00      0.76      3.30    130.00
  55                  44.00      0.90      3.42    130.00
  11                  23.30      0.33      0.43    130.00
  20                  83.60      1.70     11.21    130.00
  18                  95.00      0.99      2.76    130.00
  16                  44.75      2.53     42.42    130.00
  14                  60.00      1.91     17.98    130.00
  12                  23.33      0.33      0.44    130.00
  10                  92.50      1.31      5.57    130.00
  8                   72.50      1.48      8.61    130.00
  7                  170.50      1.77      8.15    130.00
  1                   75.00      1.06      3.77    130.00
  2                  110.00      6.22    224.35    130.00
  DVRTMP18            13.33      0.12      0.05    130.00
  DVRTMP17            13.33      0.08      0.02    130.00
  DVRTMP14           154.53      0.88      1.55    130.00
  DVRTMP13           154.53      0.60      0.60    130.00
  DVRTMP10            17.90      1.01      7.77    130.00
  DVRTMP9             24.00      0.76      3.29    130.00
  DVRTMP8             41.90      0.85      3.12    130.00
  DVRTMP7             23.30      0.33      0.43    130.00
  DVRTMP6             65.20      0.68      1.37    130.00
  DVRTMP1             65.20      0.68      1.38    130.00
  DVRTMP2             71.44      0.74      1.63    130.00
  DVRTMP3            211.03      1.07      2.13    130.00
  DVRTMP12            33.44      0.68      2.05    130.00
  DVRTMP11            38.00      0.39      0.51    130.00
  DVRTMP5             71.44      0.51      0.64    130.00
  DVRTMP19            13.33      0.19      0.15    130.00
  DVRTMP22            68.20      0.71      1.49    130.00
  DVRTMP21            29.00      0.59      1.58    130.00
  DVRTMP20            97.20      0.69      1.13    130.00
  DVRTMP15           110.53      0.63      0.83    130.00
  DVRTMP16            44.00      0.90      3.41    130.00
  62                 175.00      0.00    -19.51      1.00  Pump
  61                   0.00      0.00      0.00      1.00  Pump
  60                 175.00      0.00    -19.51      1.00  Pump
  80                 350.00      1.78  1.40e+08    220.00  FCV
  78                  13.33      0.19      0.00      0.00  FCV
  76                  29.00      0.59      3.34     29.00  FCV
  74                  68.20      0.71      0.82     68.20  FCV
  72                  56.50      0.80      7.74     56.50  FCV
  70                  33.44      0.68     20.40     33.44  FCV
  68                  38.00      0.39     21.71     38.00  FCV
  66                  17.90      1.01     24.89     17.90  FCV
  65                  24.00      0.76     27.67     24.00  FCV
  40                  44.00      0.90      2.01     44.00  FCV
  35                  23.30      0.33     21.54     23.30  FCV
  3                  154.53      0.60     13.61    154.53  FCV
   
   
  Node Results at 5:00:00 hrs:
  ------------------------------------------------------------------
                  Elevation    Demand      Head  Pressure  Chemical
  Node                    m       L/s         m         m      mg/L
  ------------------------------------------------------------------
  21                 758.30      0.00    777.61     19.27      0.00
  19                 749.13      0.00    761.18     12.03      0.00
  17                 742.02      0.00    753.96     11.91      0.00
  15                 741.85      0.00    756.87     14.99      0.00
  13                 756.95      0.00    768.79     11.81      0.00
  11                 741.41      0.00    753.99     12.56      0.00
  9                  740.29      0.00    752.93     12.62      0.00
  6                  725.65      0.00    738.26     12.59      0.00
  5                  725.03      0.00    737.44     12.39      0.00
  3                  741.12      0.00    756.58     15.43      0.00
  1                  738.58      0.00    754.58     15.97      0.00
  52                 758.30      0.00  1.40e+08  1.40e+08      0.00
  20                 741.41     33.44    753.95     12.52      0.00
  18                 740.29     38.00    752.92     12.61      0.00
  16                 725.65     17.90    738.11     12.43      0.00
  14                 725.03     24.00    737.37     12.32      0.00
  12                 738.58     23.33    754.57     15.96      0.00
  10                 749.13     37.00    761.17     12.02      0.00
  8                  741.85     68.20    756.84     14.96      0.00
  7                  742.02     29.00    751.38      9.34      0.00
  4                  756.95     30.00    768.07     11.10      0.00
  2                  741.12     44.00    756.13     14.98      0.00
  DMA4700_SubashnagarExOHT    725.65      0.00    764.18     38.45      0.00
  DMA4748A_RajendranagarExOHT    741.41      0.00    775.36     33.88      0.00
  DMA4748_RajendranagarNewOHT    740.29      0.00    775.44     35.08      0.00
  DMA4600_KesareExOHT    725.03      0.00    766.46     41.35      0.00
  DMA4150_VeeranagereExOHT    749.13      0.00    761.18     12.03      0.00
  DMA4849_NRMohallaExOHT    742.02      0.00    759.53     17.48      0.00
  DMA4950_NRMohallaNewOHT    741.85      0.00    759.53     17.64      0.00
  DMA5200_UdayagiriNewOHT    741.12      0.00    759.78     18.62      0.00
  DMA5300RajivnagarIIStageExOHT    738.58      0.00    776.17     37.52      0.00
  DVRJ-11            748.00      0.00    761.27     13.24      0.00
  DVRJ-8             755.00      0.00    762.75      7.73      0.00
  DMA5400_RajivnagarIStageNewOHT    756.95      0.00    776.75     19.76      0.00
  DVRJ-4             725.38      0.00    776.32     50.83      0.00
  DVRJ-1             757.50      0.00    777.53     19.99      0.00
  DVRJ-2             757.50      0.00    777.53     19.99      0.00
  DVRJ-3             757.50      0.00    777.52     19.98      0.00
  DVRJ-5             735.74      0.00    769.72     33.91      0.00
  DVRJ-6             740.59      0.00    775.46     34.80      0.00
  DVRJ-12            748.23      0.00    761.26     13.00      0.00
  DVRJ-13            736.86      0.00    759.81     22.91      0.00
  DVRJ-10            740.78      0.00    761.29     20.46      0.00
  DVRJ-7             756.90      0.00    776.78     19.84      0.00
  DVRJ-9             738.31      0.00    761.62     23.26      0.00
  301-B              758.67   -350.00  1.40e+08  1.40e+08      0.00
  22                 756.90      0.00    763.11      6.20      0.00
  34                 758.30      2.33    777.55     19.22      0.00  Tank
  Rajendra_nagar2    741.41      0.00    753.97     12.54      0.00  Tank
  Rajendra_nagar1    740.29      0.00    752.93     12.61      0.00  Tank
  Bademakan          725.65      0.00    738.19     12.51      0.00  Tank
  Kesare             725.03      0.00    737.41     12.35      0.00  Tank
  Rajeev_Nagar_I     738.58     -0.03    754.58     15.96      0.00  Tank
  Veeranageeri       749.13    -23.67    761.18     12.03      0.00  Tank
  NR_mohalla2        742.02      0.00    751.39      9.35      0.00  Tank
  NR_Mohalla1        741.85      0.00    756.85     14.97      0.00  Tank
  Rajiv_nagar_II     756.95     26.50    768.77     11.79      0.00  Tank
  Tippu_Park         741.12      0.00    756.54     15.39      0.00  Tank
   
   
  Link Results at 5:00:00 hrs:
  --------------------------------------------------------
                       Flow  Velocity  Headloss   Setting
  Link                  L/s       m/s    /1000m          
  --------------------------------------------------------
  DVRTMP23            56.50      0.80      2.23    130.00
  DVRTMP4            211.03      0.81      1.08    130.00
  84                 350.00      1.78      5.43    130.00
  79                  13.33      0.19      0.16    130.00
  77                  29.00      0.59      2.56    100.00
  75                  68.20      0.71      1.50    130.00
  73                  56.50      0.80      2.23    130.00
  71                  33.44      0.68      2.05    130.00
  69                  38.00      0.39      0.51    130.00
  67                  17.90      1.01      7.77    130.00
  64                  24.00      0.76      3.30    130.00
  55                  44.00      0.90      3.42    130.00
  11                  23.30      0.33      0.43    130.00
  20                  33.44      0.68      2.05    130.00
  18                  38.00      0.39      0.51    130.00
  16                  17.90      1.01      7.78    130.00
  14                  24.00      0.76      3.30    130.00
  12                  23.33      0.33      0.44    130.00
  10                  37.00      0.52      1.02    130.00
  8                   29.00      0.59      1.58    130.00
  7                   68.20      0.71      1.49    130.00
  1                   30.00      0.42      0.69    130.00
  2                   44.00      2.49     41.11    130.00
  DVRTMP18            13.33      0.12      0.05    130.00
  DVRTMP17            13.33      0.08      0.02    130.00
  DVRTMP14           154.53      0.88      1.55    130.00
  DVRTMP13           154.53      0.60      0.61    130.00
  DVRTMP10            17.90      1.01      7.77    130.00
  DVRTMP9             24.00      0.76      3.29    130.00
  DVRTMP8             41.90      0.85      3.12    130.00
  DVRTMP7             23.30      0.33      0.43    130.00
  DVRTMP6             65.20      0.68      1.37    130.00
  DVRTMP1             65.20      0.68      1.37    130.00
  DVRTMP2             71.44      0.74      1.63    130.00
  DVRTMP3            211.03      1.07      2.13    130.00
  DVRTMP12            33.44      0.68      2.05    130.00
  DVRTMP11            38.00      0.39      0.51    130.00
  DVRTMP5             71.44      0.51      0.64    130.00
  DVRTMP19            13.33      0.19      0.15    130.00
  DVRTMP22            68.20      0.71      1.49    130.00
  DVRTMP21            29.00      0.59      1.58    130.00
  DVRTMP20            97.20      0.69      1.13    130.00
  DVRTMP15           110.53      0.63      0.83    130.00
  DVRTMP16            44.00      0.90      3.41    130.00
  62                 175.00      0.00    -19.51      1.00  Pump
  61                   0.00      0.00      0.00      1.00  Pump
  60                 175.00      0.00    -19.51      1.00  Pump
  80                 350.00      1.78  1.40e+08    220.00  FCV
  78                  13.33      0.19      0.00      0.00  FCV
  76                  29.00      0.59      5.57     29.00  FCV
  74                  68.20      0.71      2.66     68.20  FCV
  72                  56.50      0.80      7.96     56.50  FCV
  70                  33.44      0.68     21.37     33.44  FCV
  68                  38.00      0.39     22.51     38.00  FCV
  66                  17.90      1.01     25.91     17.90  FCV
  65                  24.00      0.76     29.02     24.00  FCV
  40                  44.00      0.90      3.20     44.00  FCV
  35                  23.30      0.33     21.59     23.30  FCV
  3                  154.53      0.60     13.67    154.53  FCV
   
   
  Node Results at 6:00:00 hrs:
  ------------------------------------------------------------------
                  Elevation    Demand      Head  Pressure  Chemical
  Node                    m       L/s         m         m      mg/L
  ------------------------------------------------------------------
  21                 758.30      0.00    777.66     19.32      0.00
  19                 749.13      0.00    761.23     12.07      0.00
  17                 742.02      0.00    753.96     11.91      0.00
  15                 741.85      0.00    756.87     14.99      0.00
  13                 756.95      0.00    769.21     12.23      0.00
  11                 741.41      0.00    753.99     12.56      0.00
  9                  740.29      0.00    752.93     12.62      0.00
  6                  725.65      0.00    738.26     12.59      0.00
  5                  725.03      0.00    737.44     12.39      0.00
  3                  741.12      0.00    756.58     15.43      0.00
  1                  738.58      0.00    754.58     15.97      0.00
  52                 758.30      0.00  1.40e+08  1.40e+08      0.00
  20                 741.41     26.75    753.96     12.52      0.00
  18                 740.29     30.40    752.93     12.61      0.00
  16                 725.65     14.32    738.13     12.46      0.00
  14                 725.03     19.20    737.39     12.33      0.00
  12                 738.58     23.33    754.57     15.96      0.00
  10                 749.13     29.60    761.22     12.06      0.00
  8                  741.85     54.56    756.84     14.96      0.00
  7                  742.02     23.20    751.38      9.34      0.00
  4                  756.95     24.00    768.73     11.76      0.00
  2                  741.12     35.20    756.27     15.12      0.00
  DMA4700_SubashnagarExOHT    725.65      0.00    764.23     38.50      0.00
  DMA4748A_RajendranagarExOHT    741.41      0.00    775.41     33.93      0.00
  DMA4748_RajendranagarNewOHT    740.29      0.00    775.49     35.13      0.00
  DMA4600_KesareExOHT    725.03      0.00    766.51     41.40      0.00
  DMA4150_VeeranagereExOHT    749.13      0.00    761.23     12.07      0.00
  DMA4849_NRMohallaExOHT    742.02      0.00    759.58     17.52      0.00
  DMA4950_NRMohallaNewOHT    741.85      0.00    759.57     17.68      0.00
  DMA5200_UdayagiriNewOHT    741.12      0.00    759.82     18.66      0.00
  DMA5300RajivnagarIIStageExOHT    738.58      0.00    776.23     37.57      0.00
  DVRJ-11            748.00      0.00    761.31     13.28      0.00
  DVRJ-8             755.00      0.00    762.79      7.77      0.00
  DMA5400_RajivnagarIStageNewOHT    756.95      0.00    776.80     19.81      0.00
  DVRJ-4             725.38      0.00    776.37     50.88      0.00
  DVRJ-1             757.50      0.00    777.59     20.05      0.00
  DVRJ-2             757.50      0.00    777.58     20.04      0.00
  DVRJ-3             757.50      0.00    777.57     20.03      0.00
  DVRJ-5             735.74      0.00    769.77     33.97      0.00
  DVRJ-6             740.59      0.00    775.51     34.85      0.00
  DVRJ-12            748.23      0.00    761.30     13.04      0.00
  DVRJ-13            736.86      0.00    759.86     22.95      0.00
  DVRJ-10            740.78      0.00    761.33     20.50      0.00
  DVRJ-7             756.90      0.00    776.83     19.89      0.00
  DVRJ-9             738.31      0.00    761.66     23.30      0.00
  301-B              758.67   -350.00  1.40e+08  1.40e+08      0.00
  22                 756.90      0.00    763.16      6.24      0.00
  34                 758.30      2.33    777.60     19.27      0.00  Tank
  Rajendra_nagar2    741.41      6.69    753.97     12.54      0.00  Tank
  Rajendra_nagar1    740.29      7.60    752.93     12.61      0.00  Tank
  Bademakan          725.65      3.58    738.19     12.51      0.00  Tank
  Kesare             725.03      4.80    737.41     12.35      0.00  Tank
  Rajeev_Nagar_I     738.58     -0.03    754.58     15.96      0.00  Tank
  Veeranageeri       749.13    -16.27    761.22     12.07      0.00  Tank
  NR_mohalla2        742.02      5.80    751.39      9.35      0.00  Tank
  NR_Mohalla1        741.85     13.64    756.85     14.97      0.00  Tank
  Rajiv_nagar_II     756.95     32.50    769.19     12.21      0.00  Tank
  Tippu_Park         741.12      8.80    756.54     15.39      0.00  Tank
   
   
  Link Results at 6:00:00 hrs:
  --------------------------------------------------------
                       Flow  Velocity  Headloss   Setting
  Link                  L/s       m/s    /1000m          
  --------------------------------------------------------
  DVRTMP23            56.50      0.80      2.23    130.00
  DVRTMP4            211.03      0.81      1.08    130.00
  84                 350.00      1.78      5.43    130.00
  79                  13.33      0.19      0.16    130.00
  77                  29.00      0.59      2.56    100.00
  75                  68.20      0.71      1.50    130.00
  73                  56.50      0.80      2.23    130.00
  71                  33.44      0.68      2.05    130.00
  69                  38.00      0.39      0.51    130.00
  67                  17.90      1.01      7.77    130.00
  64                  24.00      0.76      3.30    130.00
  55                  44.00      0.90      3.42    130.00
  11                  23.30      0.33      0.43    130.00
  20                  26.75      0.54      1.35    130.00
  18                  30.40      0.32      0.33    130.00
  16                  14.32      0.81      5.14    130.00
  14                  19.20      0.61      2.18    130.00
  12                  23.33      0.33      0.43    130.00
  10                  29.60      0.42      0.67    130.00
  8                   23.20      0.47      1.04    130.00
  7                   54.56      0.57      0.98    130.00
  1                   24.00      0.34      0.46    130.00
  2                   35.20      1.99     27.20    130.00
  DVRTMP18            13.33      0.12      0.05    130.00
  DVRTMP17            13.33      0.08      0.02    130.00
  DVRTMP14           154.53      0.88      1.55    130.00
  DVRTMP13           154.53      0.60      0.61    130.00
  DVRTMP10            17.90      1.01      7.77    130.00
  DVRTMP9             24.00      0.76      3.29    130.00
  DVRTMP8             41.90      0.85      3.12    130.00
  DVRTMP7             23.30      0.33      0.43    130.00
  DVRTMP6             65.20      0.68      1.37    130.00
  DVRTMP1             65.20      0.68      1.37    130.00
  DVRTMP2             71.44      0.74      1.62    130.00
  DVRTMP3            211.03      1.07      2.13    130.00
  DVRTMP12            33.44      0.68      2.05    130.00
  DVRTMP11            38.00      0.39      0.51    130.00
  DVRTMP5             71.44      0.51      0.64    130.00
  DVRTMP19            13.33      0.19      0.15    130.00
  DVRTMP22            68.20      0.71      1.49    130.00
  DVRTMP21            29.00      0.59      1.58    130.00
  DVRTMP20            97.20      0.69      1.13    130.00
  DVRTMP15           110.53      0.63      0.83    130.00
  DVRTMP16            44.00      0.90      3.41    130.00
  62                 175.00      0.00    -19.51      1.00  Pump
  61                   0.00      0.00      0.00      1.00  Pump
  60                 175.00      0.00    -19.51      1.00  Pump
  80                 350.00      1.78  1.40e+08    220.00  FCV
  78                  13.33      0.19      0.00      0.00  FCV
  76                  29.00      0.59      5.62     29.00  FCV
  74                  68.20      0.71      2.70     68.20  FCV
  72                  56.50      0.80      7.59     56.50  FCV
  70                  33.44      0.68     21.42     33.44  FCV
  68                  38.00      0.39     22.56     38.00  FCV
  66                  17.90      1.01     25.96     17.90  FCV
  65                  24.00      0.76     29.07     24.00  FCV
  40                  44.00      0.90      3.24     44.00  FCV
  35                  23.30      0.33     21.64     23.30  FCV
  3                  154.53      0.60     13.68    154.53  FCV
   
   
  Node Results at 7:00:00 hrs:
  ------------------------------------------------------------------
                  Elevation    Demand      Head  Pressure  Chemical
  Node                    m       L/s         m         m      mg/L
  ------------------------------------------------------------------
  21                 758.30      0.00    777.71     19.37      0.00
  19                 749.13      0.00    761.22     12.06      0.00
  17                 742.02      0.00    754.46     12.41      0.00
  15                 741.85      0.00    757.16     15.28      0.00
  13                 756.95      0.00    769.72     12.75      0.00
  11                 741.41      0.00    754.14     12.70      0.00
  9                  740.29      0.00    753.05     12.74      0.00
  6                  725.65      0.00    738.42     12.74      0.00
  5                  725.03      0.00    737.65     12.59      0.00
  3                  741.12      0.00    756.77     15.62      0.00
  1                  738.58      0.00    754.58     15.97      0.00
  52                 758.30      0.00  1.40e+08  1.40e+08      0.00
  20                 741.41     33.44    754.10     12.66      0.00
  18                 740.29     38.00    753.04     12.73      0.00
  16                 725.65     17.90    738.26     12.59      0.00
  14                 725.03     24.00    737.58     12.53      0.00
  12                 738.58     23.33    754.57     15.96      0.00
  10                 749.13     37.00    761.20     12.05      0.00
  8                  741.85     68.20    757.13     15.25      0.00
  7                  742.02     29.00    751.88      9.84      0.00
  4                  756.95     30.00    769.01     12.04      0.00
  2                  741.12     44.00    756.33     15.17      0.00
  DMA4700_SubashnagarExOHT    725.65      0.00    764.28     38.55      0.00
  DMA4748A_RajendranagarExOHT    741.41      0.00    775.46     33.98      0.00
  DMA4748_RajendranagarNewOHT    740.29      0.00    775.55     35.18      0.00
  DMA4600_KesareExOHT    725.03      0.00    766.56     41.45      0.00
  DMA4150_VeeranagereExOHT    749.13      0.00    761.22     12.06      0.00
  DMA4849_NRMohallaExOHT    742.02      0.00    759.57     17.51      0.00
  DMA4950_NRMohallaNewOHT    741.85      0.00    759.56     17.67      0.00
  DMA5200_UdayagiriNewOHT    741.12      0.00    759.81     18.65      0.00
  DMA5300RajivnagarIIStageExOHT    738.58      0.00    776.28     37.62      0.00
  DVRJ-11            748.00      0.00    761.30     13.27      0.00
  DVRJ-8             755.00      0.00    762.78      7.76      0.00
  DMA5400_RajivnagarIStageNewOHT    756.95      0.00    776.85     19.86      0.00
  DVRJ-4             725.38      0.00    776.42     50.93      0.00
  DVRJ-1             757.50      0.00    777.64     20.10      0.00
  DVRJ-2             757.50      0.00    777.64     20.09      0.00
  DVRJ-3             757.50      0.00    777.62     20.08      0.00
  DVRJ-5             735.74      0.00    769.82     34.02      0.00
  DVRJ-6             740.59      0.00    775.56     34.90      0.00
  DVRJ-12            748.23      0.00    761.29     13.03      0.00
  DVRJ-13            736.86      0.00    759.85     22.94      0.00
  DVRJ-10            740.78      0.00    761.32     20.49      0.00
  DVRJ-7             756.90      0.00    776.88     19.94      0.00
  DVRJ-9             738.31      0.00    761.65     23.29      0.00
  301-B              758.67   -350.00  1.40e+08  1.40e+08      0.00
  22                 756.90      0.00    763.14      6.23      0.00
  34                 758.30      2.33    777.66     19.32      0.00  Tank
  Rajendra_nagar2    741.41      0.00    754.12     12.68      0.00  Tank
  Rajendra_nagar1    740.29      0.00    753.05     12.73      0.00  Tank
  Bademakan          725.65      0.00    738.34     12.67      0.00  Tank
  Kesare             725.03      0.00    737.62     12.56      0.00  Tank
  Rajeev_Nagar_I     738.58     -0.03    754.58     15.96      0.00  Tank
  Veeranageeri       749.13    -23.67    761.21     12.06      0.00  Tank
  NR_mohalla2        742.02      0.00    751.89      9.85      0.00  Tank
  NR_Mohalla1        741.85      0.00    757.15     15.27      0.00  Tank
  Rajiv_nagar_II     756.95     26.50    769.70     12.73      0.00  Tank
  Tippu_Park         741.12      0.00    756.74     15.59      0.00  Tank
   
   
  Link Results at 7:00:00 hrs:
  --------------------------------------------------------
                       Flow  Velocity  Headloss   Setting
  Link                  L/s       m/s    /1000m          
  --------------------------------------------------------
  DVRTMP23            56.50      0.80      2.23    130.00
  DVRTMP4            211.03      0.81      1.08    130.00
  84                 350.00      1.78      5.43    130.00
  79                  13.33      0.19      0.15    130.00
  77                  29.00      0.59      2.56    100.00
  75                  68.20      0.71      1.50    130.00
  73                  56.50      0.80      2.23    130.00
  71                  33.44      0.68      2.05    130.00
  69                  38.00      0.39      0.51    130.00
  67                  17.90      1.01      7.78    130.00
  64                  24.00      0.76      3.30    130.00
  55                  44.00      0.90      3.42    130.00
  11                  23.30      0.33      0.43    130.00
  20                  33.44      0.68      2.05    130.00
  18                  38.00      0.39      0.51    130.00
  16                  17.90      1.01      7.77    130.00
  14                  24.00      0.76      3.30    130.00
  12                  23.33      0.33      0.43    130.00
  10                  37.00      0.52      1.02    130.00
  8                   29.00      0.59      1.58    130.00
  7                   68.20      0.71      1.49    130.00
  1                   30.00      0.42      0.69    130.00
  2                   44.00      2.49     41.11    130.00
  DVRTMP18            13.33      0.12      0.05    130.00
  DVRTMP17            13.33      0.08      0.02    130.00
  DVRTMP14           154.53      0.88      1.55    130.00
  DVRTMP13           154.53      0.60      0.61    130.00
  DVRTMP10            17.90      1.01      7.77    130.00
  DVRTMP9             24.00      0.76      3.29    130.00
  DVRTMP8             41.90      0.85      3.12    130.00
  DVRTMP7             23.30      0.33      0.43    130.00
  DVRTMP6             65.20      0.68      1.37    130.00
  DVRTMP1             65.20      0.68      1.38    130.00
  DVRTMP2             71.44      0.74      1.63    130.00
  DVRTMP3            211.03      1.07      2.13    130.00
  DVRTMP12            33.44      0.68      2.05    130.00
  DVRTMP11            38.00      0.39      0.51    130.00
  DVRTMP5             71.44      0.51      0.64    130.00
  DVRTMP19            13.33      0.19      0.15    130.00
  DVRTMP22            68.20      0.71      1.49    130.00
  DVRTMP21            29.00      0.59      1.58    130.00
  DVRTMP20            97.20      0.69      1.13    130.00
  DVRTMP15           110.53      0.63      0.83    130.00
  DVRTMP16            44.00      0.90      3.41    130.00
  62                 175.00      0.00    -19.51      1.00  Pump
  61                   0.00      0.00      0.00      1.00  Pump
  60                 175.00      0.00    -19.51      1.00  Pump
  80                 350.00      1.78  1.40e+08    220.00  FCV
  78                  13.33      0.19      0.00      0.00  FCV
  76                  29.00      0.59      5.11     29.00  FCV
  74                  68.20      0.71      2.40     68.20  FCV
  72                  56.50      0.80      7.13     56.50  FCV
  70                  33.44      0.68     21.32     33.44  FCV
  68                  38.00      0.39     22.49     38.00  FCV
  66                  17.90      1.01     25.86     17.90  FCV
  65                  24.00      0.76     28.92     24.00  FCV
  40                  44.00      0.90      3.04     44.00  FCV
  35                  23.30      0.33     21.70     23.30  FCV
  3                  154.53      0.60     13.74    154.53  FCV
   
   
  Node Results at 8:00:00 hrs:
  ------------------------------------------------------------------
                  Elevation    Demand      Head  Pressure  Chemical
  Node                    m       L/s         m         m      mg/L
  ------------------------------------------------------------------
  21                 758.30      0.00    777.76     19.42      0.00
  19                 749.13      0.00    761.19     12.04      0.00
  17                 742.02      0.00    754.96     12.91      0.00
  15                 741.85      0.00    757.46     15.58      0.00
  13                 756.95      0.00    770.24     13.26      0.00
  11                 741.41      0.00    754.28     12.85      0.00
  9                  740.29      0.00    753.17     12.86      0.00
  6                  725.65      0.00    738.57     12.90      0.00
  5                  725.03      0.00    737.86     12.80      0.00
  3                  741.12      0.00    756.96     15.81      0.00
  1                  738.58      0.00    754.58     15.97      0.00
  52                 758.30      0.00  1.40e+08  1.40e+08      0.00
  20                 741.41     26.75    754.25     12.81      0.00
  18                 740.29     30.40    753.17     12.85      0.00
  16                 725.65     14.32    738.44     12.77      0.00
  14                 725.03     19.20    737.80     12.75      0.00
  12                 738.58     23.33    754.57     15.96      0.00
  10                 749.13     29.60    761.18     12.03      0.00
  8                  741.85     54.56    757.44     15.55      0.00
  7                  742.02     23.20    752.38     10.34      0.00
  4                  756.95     24.00    769.76     12.78      0.00
  2                  741.12     35.20    756.66     15.51      0.00
  DMA4700_SubashnagarExOHT    725.65      0.00    764.33     38.60      0.00
  DMA4748A_RajendranagarExOHT    741.41      0.00    775.51     34.03      0.00
  DMA4748_RajendranagarNewOHT    740.29      0.00    775.60     35.24      0.00
  DMA4600_KesareExOHT    725.03      0.00    766.61     41.50      0.00
  DMA4150_VeeranagereExOHT    749.13      0.00    761.19     12.04      0.00
  DMA4849_NRMohallaExOHT    742.02      0.00    759.54     17.49      0.00
  DMA4950_NRMohallaNewOHT    741.85      0.00    759.53     17.65      0.00
  DMA5200_UdayagiriNewOHT    741.12      0.00    759.79     18.63      0.00
  DMA5300RajivnagarIIStageExOHT    738.58      0.00    776.33     37.67      0.00
  DVRJ-11            748.00      0.00    761.27     13.25      0.00
  DVRJ-8             755.00      0.00    762.75      7.74      0.00
  DMA5400_RajivnagarIStageNewOHT    756.95      0.00    776.90     19.91      0.00
  DVRJ-4             725.38      0.00    776.47     50.98      0.00
  DVRJ-1             757.50      0.00    777.69     20.15      0.00
  DVRJ-2             757.50      0.00    777.69     20.15      0.00
  DVRJ-3             757.50      0.00    777.67     20.13      0.00
  DVRJ-5             735.74      0.00    769.87     34.07      0.00
  DVRJ-6             740.59      0.00    775.61     34.95      0.00
  DVRJ-12            748.23      0.00    761.27     13.01      0.00
  DVRJ-13            736.86      0.00    759.82     22.92      0.00
  DVRJ-10            740.78      0.00    761.29     20.47      0.00
  DVRJ-7             756.90      0.00    776.94     20.00      0.00
  DVRJ-9             738.31      0.00    761.62     23.26      0.00
  301-B              758.67   -350.00  1.40e+08  1.40e+08      0.00
  22                 756.90      0.00    763.12      6.21      0.00
  34                 758.30      2.33    777.71     19.37      0.00  Tank
  Rajendra_nagar2    741.41      6.69    754.26     12.83      0.00  Tank
  Rajendra_nagar1    740.29      7.60    753.17     12.85      0.00  Tank
  Bademakan          725.65      3.58    738.50     12.82      0.00  Tank
  Kesare             725.03      4.80    737.82     12.77      0.00  Tank
  Rajeev_Nagar_I     738.58     -0.03    754.57     15.96      0.00  Tank
  Veeranageeri       749.13    -16.27    761.19     12.03      0.00  Tank
  NR_mohalla2        742.02      5.80    752.39     10.35      0.00  Tank
  NR_Mohalla1        741.85     13.64    757.45     15.56      0.00  Tank
  Rajiv_nagar_II     756.95     32.50    770.22     13.24      0.00  Tank
  Tippu_Park         741.12      8.80    756.93     15.78      0.00  Tank
   
   
  Link Results at 8:00:00 hrs:
  --------------------------------------------------------
                       Flow  Velocity  Headloss   Setting
  Link                  L/s       m/s    /1000m          
  --------------------------------------------------------
  DVRTMP23            56.50      0.80      2.23    130.00
  DVRTMP4            211.03      0.81      1.08    130.00
  84                 350.00      1.78      5.43    130.00
  79                  13.33      0.19      0.15    130.00
  77                  29.00      0.59      2.56    100.00
  75                  68.20      0.71      1.50    130.00
  73                  56.50      0.80      2.23    130.00
  71                  33.44      0.68      2.05    130.00
  69                  38.00      0.39      0.51    130.00
  67                  17.90      1.01      7.77    130.00
  64                  24.00      0.76      3.29    130.00
  55                  44.00      0.90      3.42    130.00
  11                  23.30      0.33      0.44    130.00
  20                  26.75      0.54      1.36    130.00
  18                  30.40      0.32      0.33    130.00
  16                  14.32      0.81      5.14    130.00
  14                  19.20      0.61      2.18    130.00
  12                  23.33      0.33      0.43    130.00
  10                  29.60      0.42      0.68    130.00
  8                   23.20      0.47      1.04    130.00
  7                   54.56      0.57      0.98    130.00
  1                   24.00      0.34      0.46    130.00
  2                   35.20      1.99     27.19    130.00
  DVRTMP18            13.33      0.12      0.05    130.00
  DVRTMP17            13.33      0.08      0.02    130.00
  DVRTMP14           154.53      0.88      1.55    130.00
  DVRTMP13           154.53      0.60      0.60    130.00
  DVRTMP10            17.90      1.01      7.77    130.00
  DVRTMP9             24.00      0.76      3.29    130.00
  DVRTMP8             41.90      0.85      3.12    130.00
  DVRTMP7             23.30      0.33      0.43    130.00
  DVRTMP6             65.20      0.68      1.37    130.00
  DVRTMP1             65.20      0.68      1.37    130.00
  DVRTMP2             71.44      0.74      1.63    130.00
  DVRTMP3            211.03      1.07      2.13    130.00
  DVRTMP12            33.44      0.68      2.05    130.00
  DVRTMP11            38.00      0.39      0.51    130.00
  DVRTMP5             71.44      0.51      0.64    130.00
  DVRTMP19            13.33      0.19      0.15    130.00
  DVRTMP22            68.20      0.71      1.49    130.00
  DVRTMP21            29.00      0.59      1.58    130.00
  DVRTMP20            97.20      0.69      1.13    130.00
  DVRTMP15           110.53      0.63      0.83    130.00
  DVRTMP16            44.00      0.90      3.41    130.00
  62                 175.00      0.00    -19.51      1.00  Pump
  61                   0.00      0.00      0.00      1.00  Pump
  60                 175.00      0.00    -19.51      1.00  Pump
  80                 350.00      1.78  1.40e+08    220.00  FCV
  78                  13.33      0.19      0.00      0.00  FCV
  76                  29.00      0.59      4.58     29.00  FCV
  74                  68.20      0.71      2.07     68.20  FCV
  72                  56.50      0.80      6.66     56.50  FCV
  70                  33.44      0.68     21.23     33.44  FCV
  68                  38.00      0.39     22.42     38.00  FCV
  66                  17.90      1.01     25.75     17.90  FCV
  65                  24.00      0.76     28.76     24.00  FCV
  40                  44.00      0.90      2.82     44.00  FCV
  35                  23.30      0.33     21.75     23.30  FCV
  3                  154.53      0.60     13.82    154.53  FCV
   
   
  Node Results at 9:00:00 hrs:
  ------------------------------------------------------------------
                  Elevation    Demand      Head  Pressure  Chemical
  Node                    m       L/s         m         m      mg/L
  ------------------------------------------------------------------
  21                 758.30      0.00    777.81     19.47      0.00
  19                 749.13      0.00    761.22     12.06      0.00
  17                 742.02      0.00    755.21     13.16      0.00
  15                 741.85      0.00    757.61     15.73      0.00
  13                 756.95      0.00    770.71     13.73      0.00
  11                 741.41      0.00    754.36     12.92      0.00
  9                  740.29      0.00    753.23     12.92      0.00
  6                  725.65      0.00    738.65     12.97      0.00
  5                  725.03      0.00    737.96     12.90      0.00
  3                  741.12      0.00    757.06     15.91      0.00
  1                  738.58      0.00    754.58     15.97      0.00
  52                 758.30      0.00  1.40e+08  1.40e+08      0.00
  20                 741.41     50.16    754.29     12.86      0.00
  18                 740.29     57.00    753.22     12.90      0.00
  16                 725.65     26.85    738.41     12.73      0.00
  14                 725.03     36.00    737.86     12.80      0.00
  12                 738.58     23.33    754.57     15.96      0.00
  10                 749.13     55.50    761.20     12.04      0.00
  8                  741.85    102.30    757.56     15.68      0.00
  7                  742.02     43.50    752.61     10.57      0.00
  4                  756.95     45.00    769.22     12.25      0.00
  2                  741.12     66.00    756.15     15.00      0.00
  DMA4700_SubashnagarExOHT    725.65      0.00    764.38     38.65      0.00
  DMA4748A_RajendranagarExOHT    741.41      0.00    775.56     34.08      0.00
  DMA4748_RajendranagarNewOHT    740.29      0.00    775.65     35.29      0.00
  DMA4600_KesareExOHT    725.03      0.00    766.67     41.55      0.00
  DMA4150_VeeranagereExOHT    749.13      0.00    761.22     12.06      0.00
  DMA4849_NRMohallaExOHT    742.02      0.00    759.57     17.51      0.00
  DMA4950_NRMohallaNewOHT    741.85      0.00    759.56     17.68      0.00
  DMA5200_UdayagiriNewOHT    741.12      0.00    759.81     18.66      0.00
  DMA5300RajivnagarIIStageExOHT    738.58      0.00    776.38     37.72      0.00
  DVRJ-11            748.00      0.00    761.30     13.27      0.00
  DVRJ-8             755.00      0.00    762.78      7.77      0.00
  DMA5400_RajivnagarIStageNewOHT    756.95      0.00    776.95     19.96      0.00
  DVRJ-4             725.38      0.00    776.52     51.03      0.00
  DVRJ-1             757.50      0.00    777.74     20.20      0.00
  DVRJ-2             757.50      0.00    777.74     20.20      0.00
  DVRJ-3             757.50      0.00    777.73     20.19      0.00
  DVRJ-5             735.74      0.00    769.92     34.12      0.00
  DVRJ-6             740.59      0.00    775.66     35.01      0.00
  DVRJ-12            748.23      0.00    761.29     13.04      0.00
  DVRJ-13            736.86      0.00    759.85     22.94      0.00
  DVRJ-10            740.78      0.00    761.32     20.50      0.00
  DVRJ-7             756.90      0.00    776.99     20.05      0.00
  DVRJ-9             738.31      0.00    761.65     23.29      0.00
  301-B              758.67   -350.00  1.40e+08  1.40e+08      0.00
  22                 756.90      0.00    763.15      6.24      0.00
  34                 758.30      2.33    777.76     19.42      0.00  Tank
  Rajendra_nagar2    741.41    -16.72    754.34     12.90      0.00  Tank
  Rajendra_nagar1    740.29    -19.00    753.23     12.91      0.00  Tank
  Bademakan          725.65     -8.95    738.57     12.90      0.00  Tank
[...]
  --------------------------------------------------------
  DVRTMP23            56.50      0.80      2.23    130.00
  DVRTMP4            211.03      0.81      1.08    130.00
  84                 350.00      1.78      5.43    130.00
  79                  13.33      0.19      0.16    130.00
  77                  29.00      0.59      2.56    100.00
  75                  68.20      0.71      1.49    130.00
  73                  56.50      0.80      2.23    130.00
  71                  33.44      0.68      2.05    130.00
  69                  38.00      0.39      0.51    130.00
  67                  17.90      1.01      7.77    130.00
  64                  24.00      0.76      3.30    130.00
  55                  44.00      0.90      3.42    130.00
  11                  23.30      0.33      0.44    130.00
  20                  33.44      0.68      2.05    130.00
  18                  38.00      0.39      0.51    130.00
  16                  17.90      1.01      7.78    130.00
  14                  24.00      0.76      3.30    130.00
  12                  23.33      0.33      0.43    130.00
  10                  37.00      0.52      1.02    130.00
  8                   29.00      0.59      1.58    130.00
  7                   68.20      0.71      1.50    130.00
  1                   30.00      0.42      0.69    130.00
  2                   44.00      2.49     41.11    130.00
  DVRTMP18            13.33      0.12      0.05    130.00
  DVRTMP17            13.33      0.08      0.02    130.00
  DVRTMP14           154.53      0.88      1.55    130.00
  DVRTMP13           154.53      0.60      0.61    130.00
  DVRTMP10            17.90      1.01      7.77    130.00
  DVRTMP9             24.00      0.76      3.29    130.00
  DVRTMP8             41.90      0.85      3.12    130.00
  DVRTMP7             23.30      0.33      0.43    130.00
  DVRTMP6             65.20      0.68      1.37    130.00
  DVRTMP1             65.20      0.68      1.37    130.00
  DVRTMP2             71.44      0.74      1.62    130.00
  DVRTMP3            211.03      1.07      2.13    130.00
  DVRTMP12            33.44      0.68      2.05    130.00
  DVRTMP11            38.00      0.39      0.51    130.00
  DVRTMP5             71.44      0.51      0.64    130.00
  DVRTMP19            13.33      0.19      0.15    130.00
  DVRTMP22            68.20      0.71      1.49    130.00
  DVRTMP21            29.00      0.59      1.58    130.00
  DVRTMP20            97.20      0.69      1.13    130.00
  DVRTMP15           110.53      0.63      0.83    130.00
  DVRTMP16            44.00      0.90      3.41    130.00
  62                 175.00      0.00    -29.26      1.00  Pump
  61                   0.00      0.00      0.00      1.00  Pump
  60                 175.00      0.00    -29.26      1.00  Pump
  80                 350.00      1.78  1.40e+08    220.00  FCV
  78                  13.33      0.19      0.00      0.00  FCV
  76                  29.00      0.59      5.97     29.00  FCV
  74                  68.20      0.71      2.68     68.20  FCV
  72                  56.50      0.80      7.78     56.50  FCV
  70                  33.44      0.68     24.85     33.44  FCV
  68                  38.00      0.39     25.99     38.00  FCV
  66                  17.90      1.01     29.39     17.90  FCV
  65                  24.00      0.76     32.51     24.00  FCV
  40                  44.00      0.90      3.22     44.00  FCV
  35                  23.30      0.33     25.09     23.30  FCV
  3                  154.53      0.60     17.13    154.53  FCV
   
   
  Node Results at 23:00:00 hrs:
  ------------------------------------------------------------------
                  Elevation    Demand      Head  Pressure  Chemical
  Node                    m       L/s         m         m      mg/L
  ------------------------------------------------------------------
  21                 758.30      0.00    781.77     23.43      0.00
  19                 749.13      0.00    761.16     12.01      0.00
  17                 742.02      0.00    753.83     11.79      0.00
  15                 741.85      0.00    757.01     15.13      0.00
  13                 756.95      0.00    772.46     15.48      0.00
  11                 741.41      0.00    754.07     12.63      0.00
  9                  740.29      0.00    752.99     12.68      0.00
  6                  725.65      0.00    738.34     12.67      0.00
  5                  725.03      0.00    737.54     12.49      0.00
  3                  741.12      0.00    756.67     15.52      0.00
  1                  738.58      0.00    754.57     15.96      0.00
  52                 758.30      0.00  1.40e+08  1.40e+08      0.00
  20                 741.41     20.06    754.04     12.60      0.00
  18                 740.29     22.80    752.99     12.67      0.00
  16                 725.65     10.74    738.23     12.56      0.00
  14                 725.03     14.40    737.50     12.44      0.00
  12                 738.58     23.33    754.56     15.95      0.00
  10                 749.13     22.20    761.15     12.00      0.00
  8                  741.85     40.92    756.99     15.11      0.00
  7                  742.02     17.40    751.26      9.23      0.00
  4                  756.95     18.00    772.17     15.19      0.00
  2                  741.12     26.40    756.48     15.33      0.00
  DMA4700_SubashnagarExOHT    725.65      0.00    768.34     42.61      0.00
  DMA4748A_RajendranagarExOHT    741.41      0.00    779.53     38.04      0.00
  DMA4748_RajendranagarNewOHT    740.29      0.00    779.61     39.24      0.00
  DMA4600_KesareExOHT    725.03      0.00    770.63     45.51      0.00
  DMA4150_VeeranagereExOHT    749.13      0.00    761.16     12.01      0.00
  DMA4849_NRMohallaExOHT    742.02      0.00    759.51     17.46      0.00
  DMA4950_NRMohallaNewOHT    741.85      0.00    759.50     17.62      0.00
  DMA5200_UdayagiriNewOHT    741.12      0.00    759.76     18.60      0.00
  DMA5300RajivnagarIIStageExOHT    738.58      0.00    780.34     41.68      0.00
  DVRJ-11            748.00      0.00    761.24     13.22      0.00
  DVRJ-8             755.00      0.00    762.72      7.71      0.00
  DMA5400_RajivnagarIStageNewOHT    756.95      0.00    780.92     23.92      0.00
  DVRJ-4             725.38      0.00    780.48     54.99      0.00
  DVRJ-1             757.50      0.00    781.70     24.15      0.00
  DVRJ-2             757.50      0.00    781.70     24.15      0.00
  DVRJ-3             757.50      0.00    781.69     24.14      0.00
  DVRJ-5             735.74      0.00    773.89     38.07      0.00
  DVRJ-6             740.59      0.00    779.62     38.96      0.00
  DVRJ-12            748.23      0.00    761.24     12.98      0.00
  DVRJ-13            736.86      0.00    759.79     22.89      0.00
  DVRJ-10            740.78      0.00    761.26     20.44      0.00
  DVRJ-7             756.90      0.00    780.95     24.00      0.00
  DVRJ-9             738.31      0.00    761.59     23.23      0.00
  301-B              758.67   -350.00  1.40e+08  1.40e+08      0.00
  22                 756.90      0.00    763.09      6.18      0.00
  34                 758.30      2.33    781.72     23.37      0.00  Tank
  Rajendra_nagar2    741.41     13.38    754.05     12.61      0.00  Tank
  Rajendra_nagar1    740.29     15.20    752.99     12.67      0.00  Tank
  Bademakan          725.65      7.16    738.26     12.59      0.00  Tank
  Kesare             725.03      9.60    737.51     12.46      0.00  Tank
  Rajeev_Nagar_I     738.58     -0.03    754.57     15.95      0.00  Tank
  Veeranageeri       749.13     -8.87    761.16     12.00      0.00  Tank
  NR_mohalla2        742.02     11.60    751.27      9.23      0.00  Tank
  NR_Mohalla1        741.85     27.28    757.00     15.12      0.00  Tank
  Rajiv_nagar_II     756.95     38.50    772.44     15.45      0.00  Tank
  Tippu_Park         741.12     17.60    756.64     15.49      0.00  Tank
   
   
  Link Results at 23:00:00 hrs:
  --------------------------------------------------------
                       Flow  Velocity  Headloss   Setting
  Link                  L/s       m/s    /1000m          
  --------------------------------------------------------
  DVRTMP23            56.50      0.80      2.23    130.00
  DVRTMP4            211.03      0.81      1.08    130.00
  84                 350.00      1.78      5.43    130.00
  79                  13.33      0.19      0.15    130.00
  77                  29.00      0.59      2.56    100.00
  75                  68.20      0.71      1.49    130.00
  73                  56.50      0.80      2.23    130.00
  71                  33.44      0.68      2.05    130.00
  69                  38.00      0.39      0.51    130.00
  67                  17.90      1.01      7.78    130.00
  64                  24.00      0.76      3.29    130.00
  55                  44.00      0.90      3.42    130.00
  11                  23.30      0.33      0.43    130.00
  20                  20.06      0.41      0.80    130.00
  18                  22.80      0.24      0.20    130.00
  16                  10.74      0.61      3.01    130.00
  14                  14.40      0.46      1.28    130.00
  12                  23.33      0.33      0.44    130.00
  10                  22.20      0.31      0.40    130.00
  8                   17.40      0.35      0.61    130.00
  7                   40.92      0.43      0.58    130.00
  1                   18.00      0.25      0.27    130.00
  2                   26.40      1.49     15.96    130.00
  DVRTMP18            13.33      0.12      0.05    130.00
  DVRTMP17            13.33      0.08      0.02    130.00
  DVRTMP14           154.53      0.88      1.55    130.00
  DVRTMP13           154.53      0.60      0.60    130.00
  DVRTMP10            17.90      1.01      7.77    130.00
  DVRTMP9             24.00      0.76      3.29    130.00
  DVRTMP8             41.90      0.85      3.12    130.00
  DVRTMP7             23.30      0.33      0.43    130.00
  DVRTMP6             65.20      0.68      1.37    130.00
  DVRTMP1             65.20      0.68      1.37    130.00
  DVRTMP2             71.44      0.74      1.62    130.00
  DVRTMP3            211.03      1.07      2.12    130.00
  DVRTMP12            33.44      0.68      2.05    130.00
  DVRTMP11            38.00      0.39      0.51    130.00
  DVRTMP5             71.44      0.51      0.64    130.00
  DVRTMP19            13.33      0.19      0.15    130.00
  DVRTMP22            68.20      0.71      1.49    130.00
  DVRTMP21            29.00      0.59      1.58    130.00
  DVRTMP20            97.20      0.69      1.13    130.00
  DVRTMP15           110.53      0.63      0.83    130.00
  DVRTMP16            44.00      0.90      3.41    130.00
  62                 175.00      0.00    -29.26      1.00  Pump
  61                   0.00      0.00      0.00      1.00  Pump
  60                 175.00      0.00    -29.26      1.00  Pump
  80                 350.00      1.78  1.40e+08    220.00  FCV
  78                  13.33      0.19      0.00      0.00  FCV
  76                  29.00      0.59      5.68     29.00  FCV
  74                  68.20      0.71      2.49     68.20  FCV
  72                  56.50      0.80      8.46     56.50  FCV
  70                  33.44      0.68     25.46     33.44  FCV
  68                  38.00      0.39     26.62     38.00  FCV
  66                  17.90      1.01     30.00     17.90  FCV
  65                  24.00      0.76     33.08     24.00  FCV
  40                  44.00      0.90      3.08     44.00  FCV
  35                  23.30      0.33     25.77     23.30  FCV
  3                  154.53      0.60     17.86    154.53  FCV
   
   
  Node Results at 24:00:00 hrs:
  ------------------------------------------------------------------
                  Elevation    Demand      Head  Pressure  Chemical
  Node                    m       L/s         m         m      mg/L
  ------------------------------------------------------------------
  21                 758.30      0.00    782.30     23.95      0.00
  19                 749.13      0.00    761.17     12.02      0.00
  17                 742.02      0.00    755.08     13.04      0.00
  15                 741.85      0.00    757.76     15.88      0.00
  13                 756.95      0.00    772.47     15.49      0.00
  11                 741.41      0.00    754.43     12.99      0.00
  9                  740.29      0.00    753.30     12.98      0.00
  6                  725.65      0.00    738.73     13.05      0.00
  5                  725.03      0.00    738.06     13.01      0.00
  3                  741.12      0.00    757.15     16.00      0.00
  1                  738.58      0.00    754.57     15.96      0.00
  52                 758.30      0.00  1.40e+08  1.40e+08      0.00
  20                 741.41      6.69    754.41     12.97      0.00
  18                 740.29      7.60    753.29     12.97      0.00
  16                 725.65      3.58    738.65     12.97      0.00
  14                 725.03      4.80    738.03     12.97      0.00
  12                 738.58     23.33    754.56     15.95      0.00
  10                 749.13      7.40    761.17     12.02      0.00
  8                  741.85     13.64    757.74     15.86      0.00
  7                  742.02      5.80    752.52     10.48      0.00
  4                  756.95      6.00    772.41     15.43      0.00
  2                  741.12      8.80    757.10     15.95      0.00
  DMA4700_SubashnagarExOHT    725.65      0.00    768.87     43.13      0.00
  DMA4748A_RajendranagarExOHT    741.41      0.00    780.05     38.57      0.00
  DMA4748_RajendranagarNewOHT    740.29      0.00    780.14     39.77      0.00
  DMA4600_KesareExOHT    725.03      0.00    771.16     46.03      0.00
  DMA4150_VeeranagereExOHT    749.13      0.00    761.17     12.02      0.00
  DMA4849_NRMohallaExOHT    742.02      0.00    759.52     17.47      0.00
  DMA4950_NRMohallaNewOHT    741.85      0.00    759.52     17.63      0.00
  DMA5200_UdayagiriNewOHT    741.12      0.00    759.77     18.61      0.00
  DMA5300RajivnagarIIStageExOHT    738.58      0.00    780.87     42.20      0.00
  DVRJ-11            748.00      0.00    761.26     13.23      0.00
  DVRJ-8             755.00      0.00    762.73      7.72      0.00
  DMA5400_RajivnagarIStageNewOHT    756.95      0.00    781.45     24.45      0.00
  DVRJ-4             725.38      0.00    781.01     55.52      0.00
  DVRJ-1             757.50      0.00    782.23     24.68      0.00
  DVRJ-2             757.50      0.00    782.23     24.68      0.00
  DVRJ-3             757.50      0.00    782.22     24.67      0.00
  DVRJ-5             735.74      0.00    774.41     38.60      0.00
  DVRJ-6             740.59      0.00    780.15     39.49      0.00
  DVRJ-12            748.23      0.00    761.25     12.99      0.00
  DVRJ-13            736.86      0.00    759.80     22.90      0.00
  DVRJ-10            740.78      0.00    761.28     20.45      0.00
  DVRJ-7             756.90      0.00    781.48     24.53      0.00
  DVRJ-9             738.31      0.00    761.61     23.25      0.00
  301-B              758.67   -350.00  1.40e+08  1.40e+08      0.00
  22                 756.90      0.00    763.10      6.19      0.00
  34                 758.30      2.33    782.25     23.90      0.00  Tank
  Rajendra_nagar2    741.41     26.75    754.41     12.97      0.00  Tank
  Rajendra_nagar1    740.29     30.40    753.29     12.97      0.00  Tank
  Bademakan          725.65     14.32    738.65     12.97      0.00  Tank
  Kesare             725.03     19.20    738.03     12.97      0.00  Tank
  Rajeev_Nagar_I     738.58     -0.03    754.56     15.95      0.00  Tank
  Veeranageeri       749.13      5.93    761.17     12.02      0.00  Tank
  NR_mohalla2        742.02     23.20    752.52     10.48      0.00  Tank
  NR_Mohalla1        741.85     54.56    757.74     15.86      0.00  Tank
  Rajiv_nagar_II     756.95     50.50    772.45     15.47      0.00  Tank
  Tippu_Park         741.12     35.20    757.12     15.97      0.00  Tank
   
   
  Link Results at 24:00:00 hrs:
  --------------------------------------------------------
                       Flow  Velocity  Headloss   Setting
  Link                  L/s       m/s    /1000m          
  --------------------------------------------------------
  DVRTMP23            56.50      0.80      2.23    130.00
  DVRTMP4            211.03      0.81      1.08    130.00
  84                 350.00      1.78      5.43    130.00
  79                  13.33      0.19      0.16    130.00
  77                  29.00      0.59      2.56    100.00
  75                  68.20      0.71      1.50    130.00
  73                  56.50      0.80      2.23    130.00
  71                  33.44      0.68      2.05    130.00
  69                  38.00      0.39      0.51    130.00
  67                  17.90      1.01      7.77    130.00
  64                  24.00      0.76      3.30    130.00
  55                  44.00      0.90      3.42    130.00
  11                  23.30      0.33      0.43    130.00
  20                   6.69      0.14      0.10    130.00
  18                   7.60      0.08      0.02    130.00
  16                   3.58      0.20      0.39    130.00
  14                   4.80      0.15      0.17    130.00
  12                  23.33      0.33      0.43    130.00
  10                   7.40      0.10      0.05    130.00
  8                    5.80      0.12      0.07    130.00
  7                   13.64      0.14      0.07    130.00
  1                    6.00      0.08      0.04    130.00
  2                    8.80      0.50      2.08    130.00
  DVRTMP18            13.33      0.12      0.05    130.00
  DVRTMP17            13.33      0.08      0.02    130.00
  DVRTMP14           154.53      0.88      1.55    130.00
  DVRTMP13           154.53      0.60      0.61    130.00
  DVRTMP10            17.90      1.01      7.77    130.00
  DVRTMP9             24.00      0.76      3.29    130.00
  DVRTMP8             41.90      0.85      3.12    130.00
  DVRTMP7             23.30      0.33      0.43    130.00
  DVRTMP6             65.20      0.68      1.37    130.00
  DVRTMP1             65.20      0.68      1.38    130.00
  DVRTMP2             71.44      0.74      1.63    130.00
  DVRTMP3            211.03      1.07      2.13    130.00
  DVRTMP12            33.44      0.68      2.05    130.00
  DVRTMP11            38.00      0.39      0.51    130.00
  DVRTMP5             71.44      0.51      0.64    130.00
  DVRTMP19            13.33      0.19      0.15    130.00
  DVRTMP22            68.20      0.71      1.49    130.00
  DVRTMP21            29.00      0.59      1.58    130.00
  DVRTMP20            97.20      0.69      1.13    130.00
  DVRTMP15           110.53      0.63      0.83    130.00
  DVRTMP16            44.00      0.90      3.41    130.00
  62                 175.00      0.00    -29.26      1.00  Pump
  61                   0.00      0.00      0.00      1.00  Pump
  60                 175.00      0.00    -29.26      1.00  Pump
  80                 350.00      1.78  1.40e+08    220.00  FCV
  78                  13.33      0.19      0.00      0.00  FCV
  76                  29.00      0.59      4.44     29.00  FCV
  74                  68.20      0.71      1.76     68.20  FCV
  72                  56.50      0.80      8.98     56.50  FCV
  70                  33.44      0.68     25.62     33.44  FCV
  68                  38.00      0.39     26.84     38.00  FCV
  66                  17.90      1.01     30.14     17.90  FCV
  65                  24.00      0.76     33.09     24.00  FCV
  40                  44.00      0.90      2.61     44.00  FCV
  35                  23.30      0.33     26.30     23.30  FCV
  3                  154.53      0.60     18.38    154.53  FCV
   