  Page 1                                    Tue Apr 28 16:53:29 2015

  ******************************************************************
  *                           E P A N E T                          *
  *                   Hydraulic and Water Quality                  *
  *                   Analysis for Pipe Networks                   *
  *                         Version 2.00.12                        *
  ******************************************************************
  
  Scenario: Base                                                        
  Date: 6/2/2014 4:57:00 PM                                             
   
      Input Data File ................... temp.inp
      Number of Junctions................ 29
      Number of Reservoirs............... 0
      Number of Tanks ................... 6
      Number of Pipes ................... 24
      Number of Pumps ................... 3
      Number of Valves .................. 9
      Headloss Formula .................. Hazen-Williams
      Hydraulic Timestep ................ 10.00 min
      Hydraulic Accuracy ................ 0.001000
      Status Check Frequency ............ 2
      Maximum Trials Checked ............ 10
      Damping Limit Threshold ........... 0.000000
      Maximum Trials .................... 40
      Quality Analysis .................. None
      Specific Gravity .................. 1.00
      Relative Kinematic Viscosity ...... 1.00
      Relative Chemical Diffusivity ..... 1.00
      Demand Multiplier ................. 1.00
      Total Duration .................... 1380.00 min
      Reporting Criteria:
         All Nodes
         All Links
   
   
   
  Energy Usage:
  ----------------------------------------------------------------
             Usage   Avg.     Kw-hr      Avg.      Peak      Cost
  Pump      Factor Effic.       /m3        Kw        Kw      /day
  ----------------------------------------------------------------
  62         23.00  17.25    320.05    817.55     35.55      0.00
  61         23.00  17.25    320.05    817.55     35.55      0.00
  60         23.00  17.25    320.05    817.55     35.55      0.00
  ----------------------------------------------------------------
                                         Demand Charge:      0.00
                                         Total Cost:         0.00
   
   
  Node Results at 0:00:00 hrs:
  ------------------------------------------------------------------
                  Elevation    Demand      Head  Pressure  Chemical
  Node                    m       L/s         m         m      mg/L
  ------------------------------------------------------------------
  21                 783.00      0.00    803.20     20.16      0.00
  19                 749.13      0.00    763.24     14.08      0.00
  17                 742.02      0.00    752.43     10.38      0.00
  15                 741.85      0.00    759.25     17.36      0.00
  13                 756.95      0.00    785.20     28.20      0.00
  3                  741.12      0.00    758.44     17.29      0.00
  52                 783.00      0.00    803.20     20.16      0.00
  10                 749.13      5.62    763.24     14.08      0.00
  8                  741.85     11.39    759.24     17.35      0.00
  7                  742.02      2.88    752.16     10.12      0.00
  4                  756.95     15.97    784.96     27.95      0.00
  2                  741.12      7.50    758.40     17.25      0.00
  DMA4150_VeeranagereExOHT    749.13      0.00    784.13     34.93      0.00
  DMA4849_NRMohallaExOHT    742.02      0.00    759.35     17.29      0.00
  DMA4950_NRMohallaNewOHT    741.85      0.00    759.25     17.36      0.00
  DMA5200_UdayagiriNewOHT    741.12      0.00    782.99     41.78      0.00
  DVRJ-11            748.00      0.00    784.27     36.20      0.00
  DVRJ-8             755.00      0.00    785.04     29.98      0.00
  DMA5400_RajivnagarIStageNewOHT    756.95      0.00    785.20     28.20      0.00
  DVRJ-3             757.50      0.00    785.74     28.19      0.00
  DVRJ-12            748.23      0.00    784.26     35.95      0.00
  DVRJ-13            736.86      0.00    759.38     22.47      0.00
  DVRJ-10            740.78      0.00    784.30     43.43      0.00
  DVRJ-7             756.90      0.00    785.24     28.28      0.00
  DVRJ-9             738.31      0.00    784.45     46.04      0.00
  301-B              758.67   -217.00    768.43      9.75      0.00
  47                 757.50      0.00    803.16     45.57      0.00
  1                    0.00      0.00    785.24    783.67      0.00
  5                    0.00      0.00    759.86    758.34      0.00
  34                 783.00     45.68    803.18     20.14      0.00  Tank
  Veeranageeri       749.13     11.93    763.24     14.08      0.00  Tank
  NR_mohalla2        742.02      5.72    752.16     10.12      0.00  Tank
  NR_Mohalla1        741.85     33.08    759.24     17.36      0.00  Tank
  Rajiv_nagar_II     773.35     45.91    785.18     11.80      0.00  Tank
  Tippu_Park         741.12     31.33    758.42     17.26      0.00  Tank
   
   
  Link Results at 0:00:00 hrs:
  --------------------------------------------------------
                       Flow  Velocity  Headloss   Setting
  Link                  L/s       m/s    /1000m          
  --------------------------------------------------------
  DVRTMP23            61.88      0.88      2.64    130.00
  DVRTMP4            171.32      0.66      0.73    130.00
  84                 217.00      1.11      2.25    130.00
  79                  17.55      0.25      0.25    130.00
  77                   8.60      0.18      0.27    100.00
  75                  44.47      0.46      0.68    130.00
  73                  61.88      0.88      2.64    130.00
  55                  38.83      0.79      2.71    130.00
  10                   5.62      0.08      0.03    130.00
  8                    2.88      0.06      0.02    130.00
  7                   11.39      0.12      0.05    130.00
  1                   15.97      0.23      0.21    130.00
  2                    7.50      0.42      1.55    130.00
  DVRTMP18            17.55      0.16      0.09    130.00
  DVRTMP17            17.55      0.10      0.03    130.00
  DVRTMP14           109.44      0.62      0.82    130.00
  DVRTMP3            171.32      0.87      1.44    130.00
  DVRTMP19            17.55      0.25      0.26    130.00
  DVRTMP22            44.47      0.46      0.68    130.00
  DVRTMP21             8.60      0.18      0.17    130.00
  DVRTMP20            53.07      0.38      0.37    130.00
  DVRTMP15            70.62      0.40      0.36    130.00
  DVRTMP16            38.83      0.79      2.71    130.00
  4                  109.44      0.42      0.32    130.00
  62                 108.50      0.00    -34.77      1.00  Pump
  61                   0.00      0.00      0.00      1.00  Pump
  60                 108.50      0.00    -34.77      1.00  Pump
  80                 217.00      1.11      0.00      0.00  FCV
  78                  17.55      0.25     20.89     17.55  FCV
  76                   8.60      0.18      6.92      8.60  FCV
  74                  44.47      0.46      0.00    134.40  FCV
  72                  61.88      0.88      0.00    128.57  FCV
  40                  38.83      0.79     24.55     38.83  FCV
  6                  171.32      0.61     17.42    171.32  FCV
  3                  109.44      0.42      0.00    154.53  FCV
  5                   53.07      0.38     24.45     53.07  FCV
   
   
  Node Results at 1:00:00 hrs:
  ------------------------------------------------------------------
                  Elevation    Demand      Head  Pressure  Chemical
  Node                    m       L/s         m         m      mg/L
  ------------------------------------------------------------------
  21                 783.00      0.00    804.20     21.16      0.00
  19                 749.13      0.00    763.75     14.60      0.00
  17                 742.02      0.00    752.92     10.88      0.00
  15                 741.85      0.00    759.97     18.08      0.00
  13                 756.95      0.00    785.93     28.92      0.00
  3                  741.12      0.00    759.13     17.97      0.00
  52                 783.00      0.00    804.20     21.16      0.00
  10                 749.13      5.62    763.75     14.59      0.00
  8                  741.85     11.39    759.96     18.07      0.00
  7                  742.02      2.88    752.65     10.61      0.00
  4                  756.95     15.97    785.69     28.68      0.00
  2                  741.12      7.50    759.08     17.93      0.00
  DMA4150_VeeranagereExOHT    749.13      0.00    784.86     35.66      0.00
  DMA4849_NRMohallaExOHT    742.02      0.00    760.07     18.01      0.00
  DMA4950_NRMohallaNewOHT    741.85      0.00    759.97     18.08      0.00
  DMA5200_UdayagiriNewOHT    741.12      0.00    783.72     42.51      0.00
  DVRJ-11            748.00      0.00    785.00     36.92      0.00
  DVRJ-8             755.00      0.00    785.77     30.71      0.00
  DMA5400_RajivnagarIStageNewOHT    756.95      0.00    785.93     28.92      0.00
  DVRJ-3             757.50      0.00    786.47     28.91      0.00
  DVRJ-12            748.23      0.00    784.99     36.68      0.00
  DVRJ-13            736.86      0.00    760.10     23.19      0.00
  DVRJ-10            740.78      0.00    785.03     44.16      0.00
  DVRJ-7             756.90      0.00    785.97     29.01      0.00
  DVRJ-9             738.31      0.00    785.17     46.77      0.00
  301-B              758.67   -217.00    769.43     10.74      0.00
  47                 757.50      0.00    804.15     46.56      0.00
  1                    0.00      0.00    785.97    784.40      0.00
  5                    0.00      0.00    760.58    759.06      0.00
  34                 783.00     45.68    804.18     21.13      0.00  Tank
  Veeranageeri       749.13     11.93    763.75     14.59      0.00  Tank
  NR_mohalla2        742.02      5.72    752.65     10.61      0.00  Tank
  NR_Mohalla1        741.85     33.08    759.96     18.08      0.00  Tank
  Rajiv_nagar_II     773.35     45.91    785.90     12.53      0.00  Tank
  Tippu_Park         741.12     31.33    759.10     17.94      0.00  Tank
   
   
  Link Results at 1:00:00 hrs:
  --------------------------------------------------------
                       Flow  Velocity  Headloss   Setting
  Link                  L/s       m/s    /1000m          
  --------------------------------------------------------
  DVRTMP23            61.88      0.88      2.64    130.00
  DVRTMP4            171.32      0.66      0.73    130.00
  84                 217.00      1.11      2.25    130.00
  79                  17.55      0.25      0.25    130.00
  77                   8.60      0.18      0.27    100.00
  75                  44.47      0.46      0.68    130.00
  73                  61.88      0.88      2.64    130.00
  55                  38.83      0.79      2.71    130.00
  10                   5.62      0.08      0.04    130.00
  8                    2.88      0.06      0.02    130.00
  7                   11.39      0.12      0.05    130.00
  1                   15.97      0.23      0.21    130.00
  2                    7.50      0.42      1.56    130.00
  DVRTMP18            17.55      0.16      0.09    130.00
  DVRTMP17            17.55      0.10      0.03    130.00
  DVRTMP14           109.44      0.62      0.82    130.00
  DVRTMP3            171.32      0.87      1.44    130.00
  DVRTMP19            17.55      0.25      0.26    130.00
  DVRTMP22            44.47      0.46      0.68    130.00
  DVRTMP21             8.60      0.18      0.17    130.00
  DVRTMP20            53.07      0.38      0.37    130.00
  DVRTMP15            70.62      0.40      0.36    130.00
  DVRTMP16            38.83      0.79      2.71    130.00
  4                  109.44      0.42      0.32    130.00
  62                 108.50      0.00    -34.77      1.00  Pump
  61                   0.00      0.00      0.00      1.00  Pump
  60                 108.50      0.00    -34.77      1.00  Pump
  80                 217.00      1.11      0.00      0.00  FCV
  78                  17.55      0.25     21.10     17.55  FCV
  76                   8.60      0.18      7.15      8.60  FCV
  74                  44.47      0.46      0.00    134.40  FCV
  72                  61.88      0.88      0.00    128.57  FCV
  40                  38.83      0.79     24.59     38.83  FCV
  6                  171.32      0.61     17.68    171.32  FCV
  3                  109.44      0.42      0.00    154.53  FCV
  5                   53.07      0.38     24.45     53.07  FCV
   
   
  Node Results at 2:00:00 hrs:
  ------------------------------------------------------------------
                  Elevation    Demand      Head  Pressure  Chemical
  Node                    m       L/s         m         m      mg/L
  ------------------------------------------------------------------
  21                 783.00      0.00    805.19     22.15      0.00
  19                 749.13      0.00    764.27     15.11      0.00
  17                 742.02      0.00    753.41     11.37      0.00
  15                 741.85      0.00    760.69     18.80      0.00
  13                 756.95      0.00    786.66     29.65      0.00
  3                  741.12      0.00    759.81     18.65      0.00
  52                 783.00      0.00    805.19     22.15      0.00
  10                 749.13      5.62    764.27     15.11      0.00
  8                  741.85     11.39    760.68     18.79      0.00
  7                  742.02      2.88    753.14     11.10      0.00
  4                  756.95     15.97    786.42     29.41      0.00
  2                  741.12      7.50    759.77     18.61      0.00
  DMA4150_VeeranagereExOHT    749.13      0.00    785.59     36.38      0.00
  DMA4849_NRMohallaExOHT    742.02      0.00    760.79     18.73      0.00
  DMA4950_NRMohallaNewOHT    741.85      0.00    760.69     18.80      0.00
  DMA5200_UdayagiriNewOHT    741.12      0.00    784.44     43.24      0.00
  DVRJ-11            748.00      0.00    785.73     37.65      0.00
  DVRJ-8             755.00      0.00    786.50     31.44      0.00
  DMA5400_RajivnagarIStageNewOHT    756.95      0.00    786.66     29.65      0.00
  DVRJ-3             757.50      0.00    787.20     29.64      0.00
  DVRJ-12            748.23      0.00    785.71     37.41      0.00
  DVRJ-13            736.86      0.00    760.82     23.91      0.00
  DVRJ-10            740.78      0.00    785.76     44.88      0.00
  DVRJ-7             756.90      0.00    786.70     29.74      0.00
  DVRJ-9             738.31      0.00    785.90     47.49      0.00
  301-B              758.67   -217.00    770.43     11.74      0.00
  47                 757.50      0.00    805.15     47.56      0.00
  1                    0.00      0.00    786.70    785.12      0.00
  5                    0.00      0.00    761.30    759.78      0.00
  34                 783.00     45.68    805.17     22.13      0.00  Tank
  Veeranageeri       749.13     11.93    764.27     15.11      0.00  Tank
  NR_mohalla2        742.02      5.72    753.14     11.10      0.00  Tank
  NR_Mohalla1        741.85     33.08    760.68     18.79      0.00  Tank
  Rajiv_nagar_II     773.35     45.91    786.63     13.26      0.00  Tank
  Tippu_Park         741.12     31.33    759.78     18.62      0.00  Tank
   
   
  Link Results at 2:00:00 hrs:
  --------------------------------------------------------
                       Flow  Velocity  Headloss   Setting
  Link                  L/s       m/s    /1000m          
  --------------------------------------------------------
  DVRTMP23            61.88      0.88      2.64    130.00
  DVRTMP4            171.32      0.66      0.73    130.00
  84                 217.00      1.11      2.24    130.00
  79                  17.55      0.25      0.26    130.00
  77                   8.60      0.18      0.27    100.00
  75                  44.47      0.46      0.68    130.00
  73                  61.88      0.88      2.64    130.00
  55                  38.83      0.79      2.71    130.00
  10                   5.62      0.08      0.03    130.00
  8                    2.88      0.06      0.02    130.00
  7                   11.39      0.12      0.06    130.00
  1                   15.97      0.23      0.21    130.00
  2                    7.50      0.42      1.55    130.00
  DVRTMP18            17.55      0.16      0.09    130.00
  DVRTMP17            17.55      0.10      0.03    130.00
  DVRTMP14           109.44      0.62      0.82    130.00
  DVRTMP3            171.32      0.87      1.45    130.00
  DVRTMP19            17.55      0.25      0.26    130.00
  DVRTMP22            44.47      0.46      0.68    130.00
  DVRTMP21             8.60      0.18      0.17    130.00
  DVRTMP20            53.07      0.38      0.37    130.00
  DVRTMP15            70.62      0.40      0.36    130.00
  DVRTMP16            38.83      0.79      2.71    130.00
  4                  109.44      0.42      0.32    130.00
  62                 108.50      0.00    -34.77      1.00  Pump
  61                   0.00      0.00      0.00      1.00  Pump
  60                 108.50      0.00    -34.77      1.00  Pump
  80                 217.00      1.11      0.00      0.00  FCV
  78                  17.55      0.25     21.32     17.55  FCV
  76                   8.60      0.18      7.38      8.60  FCV
  74                  44.47      0.46      0.00    134.40  FCV
  72                  61.88      0.88      0.00    128.57  FCV
  40                  38.83      0.79     24.64     38.83  FCV
  6                  171.32      0.61     17.95    171.32  FCV
  3                  109.44      0.42      0.00    154.53  FCV
  5                   53.07      0.38     24.46     53.07  FCV
   
   
  Node Results at 3:00:00 hrs:
  ------------------------------------------------------------------
                  Elevation    Demand      Head  Pressure  Chemical
  Node                    m       L/s         m         m      mg/L
  ------------------------------------------------------------------
  21                 783.00      0.00    806.19     23.14      0.00
  19                 749.13      0.00    764.79     15.62      0.00
  17                 742.02      0.00    753.90     11.86      0.00
  15                 741.85      0.00    761.41     19.52      0.00
  13                 756.95      0.00    787.39     30.38      0.00
  3                  741.12      0.00    760.49     19.33      0.00
  52                 783.00      0.00    806.19     23.14      0.00
  10                 749.13      5.62    764.78     15.62      0.00
  8                  741.85     11.39    761.40     19.51      0.00
  7                  742.02      2.88    753.63     11.59      0.00
  4                  756.95     15.97    787.15     30.14      0.00
  2                  741.12      7.50    760.45     19.29      0.00
  DMA4150_VeeranagereExOHT    749.13      0.00    786.32     37.11      0.00
  DMA4849_NRMohallaExOHT    742.02      0.00    761.51     19.45      0.00
  DMA4950_NRMohallaNewOHT    741.85      0.00    761.41     19.52      0.00
  DMA5200_UdayagiriNewOHT    741.12      0.00    785.17     43.96      0.00
  DVRJ-11            748.00      0.00    786.45     38.38      0.00
  DVRJ-8             755.00      0.00    787.23     32.16      0.00
  DMA5400_RajivnagarIStageNewOHT    756.95      0.00    787.39     30.38      0.00
  DVRJ-3             757.50      0.00    787.93     30.37      0.00
  DVRJ-12            748.23      0.00    786.44     38.13      0.00
  DVRJ-13            736.86      0.00    761.54     24.63      0.00
  DVRJ-10            740.78      0.00    786.49     45.61      0.00
  DVRJ-7             756.90      0.00    787.42     30.46      0.00
  DVRJ-9             738.31      0.00    786.63     48.22      0.00
  301-B              758.67   -217.00    771.42     12.73      0.00
  47                 757.50      0.00    806.15     48.55      0.00
  1                    0.00      0.00    787.42    785.85      0.00
  5                    0.00      0.00    762.02    760.50      0.00
  34                 783.00     45.68    806.17     23.12      0.00  Tank
  Veeranageeri       749.13     11.93    764.78     15.62      0.00  Tank
  NR_mohalla2        742.02      5.72    753.63     11.59      0.00  Tank
  NR_Mohalla1        741.85     33.08    761.40     19.51      0.00  Tank
  Rajiv_nagar_II     773.35     45.91    787.36     13.98      0.00  Tank
  Tippu_Park         741.12     31.33    760.46     19.31      0.00  Tank
   
   
  Link Results at 3:00:00 hrs:
  --------------------------------------------------------
                       Flow  Velocity  Headloss   Setting
  Link                  L/s       m/s    /1000m          
  --------------------------------------------------------
  DVRTMP23            61.88      0.88      2.64    130.00
  DVRTMP4            171.32      0.66      0.73    130.00
  84                 217.00      1.11      2.24    130.00
  79                  17.55      0.25      0.25    130.00
  77                   8.60      0.18      0.27    100.00
  75                  44.47      0.46      0.68    130.00
  73                  61.88      0.88      2.64    130.00
  55                  38.83      0.79      2.71    130.00
  10                   5.62      0.08      0.03    130.00
  8                    2.88      0.06      0.02    130.00
  7                   11.39      0.12      0.06    130.00
  1                   15.97      0.23      0.21    130.00
  2                    7.50      0.42      1.56    130.00
  DVRTMP18            17.55      0.16      0.09    130.00
  DVRTMP17            17.55      0.10      0.03    130.00
  DVRTMP14           109.44      0.62      0.82    130.00
  DVRTMP3            171.32      0.87      1.45    130.00
  DVRTMP19            17.55      0.25      0.26    130.00
  DVRTMP22            44.47      0.46      0.68    130.00
  DVRTMP21             8.60      0.18      0.17    130.00
  DVRTMP20            53.07      0.38      0.37    130.00
  DVRTMP15            70.62      0.40      0.36    130.00
  DVRTMP16            38.83      0.79      2.71    130.00
  4                  109.44      0.42      0.32    130.00
  62                 108.50      0.00    -34.77      1.00  Pump
  61                   0.00      0.00      0.00      1.00  Pump
  60                 108.50      0.00    -34.77      1.00  Pump
  80                 217.00      1.11      0.00      0.00  FCV
  78                  17.55      0.25     21.53     17.55  FCV
  76                   8.60      0.18      7.61      8.60  FCV
  74                  44.47      0.46      0.00    134.40  FCV
  72                  61.88      0.88      0.00    128.57  FCV
  40                  38.83      0.79     24.68     38.83  FCV
  6                  171.32      0.61     18.22    171.32  FCV
  3                  109.44      0.42      0.00    154.53  FCV
  5                   53.07      0.38     24.47     53.07  FCV
   
   
  Node Results at 4:00:00 hrs:
  ------------------------------------------------------------------
                  Elevation    Demand      Head  Pressure  Chemical
  Node                    m       L/s         m         m      mg/L
  ------------------------------------------------------------------
  21                 783.00      0.00    806.41     23.36      0.00
  19                 749.13      0.00    765.30     16.14      0.00
  17                 742.02      0.00    754.39     12.35      0.00
  15                 741.85      0.00    762.13     20.24      0.00
  13                 756.95      0.00    788.11     31.10      0.00
  3                  741.12      0.00    761.17     20.01      0.00
  52                 783.00      0.00    806.41     23.36      0.00
  10                 749.13     11.25    765.30     16.13      0.00
  8                  741.85     22.79    762.12     20.23      0.00
  7                  742.02      5.76    754.12     12.08      0.00
  4                  756.95     31.93    787.31     30.30      0.00
  2                  741.12     15.00    761.09     19.93      0.00
  DMA4150_VeeranagereExOHT    749.13      0.00    787.04     37.84      0.00
  DMA4849_NRMohallaExOHT    742.02      0.00    762.23     20.17      0.00
  DMA4950_NRMohallaNewOHT    741.85      0.00    762.13     20.24      0.00
  DMA5200_UdayagiriNewOHT    741.12      0.00    785.90     44.69      0.00
  DVRJ-11            748.00      0.00    787.18     39.10      0.00
  DVRJ-8             755.00      0.00    787.96     32.89      0.00
  DMA5400_RajivnagarIStageNewOHT    756.95      0.00    788.11     31.10      0.00
  DVRJ-3             757.50      0.00    788.66     31.09      0.00
  DVRJ-12            748.23      0.00    787.17     38.86      0.00
  DVRJ-13            736.86      0.00    762.26     25.35      0.00
  DVRJ-10            740.78      0.00    787.22     46.34      0.00
  DVRJ-7             756.90      0.00    788.15     31.19      0.00
  DVRJ-9             738.31      0.00    787.36     48.95      0.00
  301-B              758.67   -217.00    771.64     12.95      0.00
  47                 757.50      0.00    806.37     48.77      0.00
  1                    0.00      0.00    788.15    786.58      0.00
  5                    0.00      0.00    762.74    761.22      0.00
  34                 783.00     45.68    806.39     23.34      0.00  Tank
  Veeranageeri       749.13      6.30    765.30     16.14      0.00  Tank
  NR_mohalla2        742.02      2.84    754.12     12.08      0.00  Tank
  NR_Mohalla1        741.85     21.68    762.12     20.23      0.00  Tank
  Rajiv_nagar_II     773.35     29.95    788.09     14.71      0.00  Tank
  Tippu_Park         741.12     23.83    761.15     19.99      0.00  Tank
   
   
  Link Results at 4:00:00 hrs:
  --------------------------------------------------------
                       Flow  Velocity  Headloss   Setting
  Link                  L/s       m/s    /1000m          
  --------------------------------------------------------
  DVRTMP23            61.88      0.88      2.64    130.00
  DVRTMP4            171.32      0.66      0.73    130.00
  84                 217.00      1.11      2.24    130.00
  79                  17.55      0.25      0.25    130.00
  77                   8.60      0.18      0.27    100.00
  75                  44.47      0.46      0.67    130.00
  73                  61.88      0.88      2.64    130.00
  55                  38.83      0.79      2.71    130.00
  10                  11.25      0.16      0.11    130.00
  8                    5.76      0.12      0.07    130.00
  7                   22.79      0.24      0.20    130.00
  1                   31.93      0.45      0.78    130.00
  2                   15.00      0.85      5.60    130.00
  DVRTMP18            17.55      0.16      0.09    130.00
  DVRTMP17            17.55      0.10      0.03    130.00
  DVRTMP14           109.44      0.62      0.82    130.00
  DVRTMP3            171.32      0.87      1.45    130.00
  DVRTMP19            17.55      0.25      0.26    130.00
  DVRTMP22            44.47      0.46      0.68    130.00
  DVRTMP21             8.60      0.18      0.17    130.00
  DVRTMP20            53.07      0.38      0.37    130.00
  DVRTMP15            70.62      0.40      0.36    130.00
  DVRTMP16            38.83      0.79      2.71    130.00
  4                  109.44      0.42      0.32    130.00
  62                 108.50      0.00    -34.77      1.00  Pump
  61                   0.00      0.00      0.00      1.00  Pump
  60                 108.50      0.00    -34.77      1.00  Pump
  80                 217.00      1.11      0.00      0.00  FCV
  78                  17.55      0.25     21.74     17.55  FCV
  76                   8.60      0.18      7.84      8.60  FCV
  74                  44.47      0.46      0.00    134.40  FCV
  72                  61.88      0.88      0.00    128.57  FCV
  40                  38.83      0.79     24.73     38.83  FCV
  6                  171.32      0.61     17.71    171.32  FCV
  3                  109.44      0.42      0.00    154.53  FCV
  5                   53.07      0.38     24.47     53.07  FCV
   
   
  Node Results at 5:00:00 hrs:
  ------------------------------------------------------------------
                  Elevation    Demand      Head  Pressure  Chemical
  Node                    m       L/s         m         m      mg/L
  ------------------------------------------------------------------
  21                 783.00      0.00    806.62     23.57      0.00
  19                 749.13      0.00    765.57     16.41      0.00
  17                 742.02      0.00    754.64     12.59      0.00
  15                 741.85      0.00    762.60     20.71      0.00
  13                 756.95      0.00    788.59     31.58      0.00
  3                  741.12      0.00    761.69     20.53      0.00
  52                 783.00      0.00    806.62     23.57      0.00
  10                 749.13     28.12    765.56     16.40      0.00
  8                  741.85     56.97    762.59     20.69      0.00
  7                  742.02     14.40    754.36     12.32      0.00
  4                  756.95     79.83    784.33     27.32      0.00
  2                  741.12     37.50    761.36     20.20      0.00
  DMA4150_VeeranagereExOHT    749.13      0.00    787.52     38.31      0.00
  DMA4849_NRMohallaExOHT    742.02      0.00    762.70     20.64      0.00
  DMA4950_NRMohallaNewOHT    741.85      0.00    762.60     20.71      0.00
  DMA5200_UdayagiriNewOHT    741.12      0.00    786.38     45.17      0.00
  DVRJ-11            748.00      0.00    787.66     39.58      0.00
  DVRJ-8             755.00      0.00    788.43     33.36      0.00
  DMA5400_RajivnagarIStageNewOHT    756.95      0.00    788.59     31.58      0.00
  DVRJ-3             757.50      0.00    789.13     31.57      0.00
  DVRJ-12            748.23      0.00    787.65     39.34      0.00
  DVRJ-13            736.86      0.00    762.73     25.82      0.00
  DVRJ-10            740.78      0.00    787.69     46.81      0.00
  DVRJ-7             756.90      0.00    788.63     31.66      0.00
  DVRJ-9             738.31      0.00    787.83     49.42      0.00
  301-B              758.67   -217.00    771.85     13.16      0.00
  47                 757.50      0.00    806.57     48.97      0.00
  1                    0.00      0.00    788.63    787.05      0.00
  5                    0.00      0.00    763.21    761.69      0.00
  34                 783.00     45.68    806.59     23.55      0.00  Tank
  Veeranageeri       749.13    -10.57    765.57     16.41      0.00  Tank
  NR_mohalla2        742.02     -5.80    754.37     12.32      0.00  Tank
  NR_Mohalla1        741.85    -12.50    762.60     20.71      0.00  Tank
  Rajiv_nagar_II     773.35    -17.95    788.56     15.18      0.00  Tank
  Tippu_Park         741.12      1.33    761.67     20.51      0.00  Tank
   
   
  Link Results at 5:00:00 hrs:
  --------------------------------------------------------
                       Flow  Velocity  Headloss   Setting
  Link                  L/s       m/s    /1000m          
  --------------------------------------------------------
  DVRTMP23            61.88      0.88      2.64    130.00
  DVRTMP4            171.32      0.66      0.73    130.00
  84                 217.00      1.11      2.24    130.00
  79                  17.55      0.25      0.25    130.00
  77                   8.60      0.18      0.27    100.00
  75                  44.47      0.46      0.68    130.00
  73                  61.88      0.88      2.64    130.00
  55                  38.83      0.79      2.71    130.00
  10                  28.12      0.40      0.62    130.00
  8                   14.40      0.29      0.43    130.00
  7                   56.97      0.59      1.06    130.00
  1                   79.83      1.13      4.23    130.00
  2                   37.50      2.12     30.58    130.00
  DVRTMP18            17.55      0.16      0.09    130.00
  DVRTMP17            17.55      0.10      0.03    130.00
  DVRTMP14           109.44      0.62      0.82    130.00
  DVRTMP3            171.32      0.87      1.45    130.00
  DVRTMP19            17.55      0.25      0.26    130.00
  DVRTMP22            44.47      0.46      0.68    130.00
  DVRTMP21             8.60      0.18      0.17    130.00
  DVRTMP20            53.07      0.38      0.37    130.00
  DVRTMP15            70.62      0.40      0.36    130.00
  DVRTMP16            38.83      0.79      2.71    130.00
  4                  109.44      0.42      0.32    130.00
  62                 108.50      0.00    -34.77      1.00  Pump
  61                   0.00      0.00      0.00      1.00  Pump
  60                 108.50      0.00    -34.77      1.00  Pump
  80                 217.00      1.11      0.00      0.00  FCV
  78                  17.55      0.25     21.95     17.55  FCV
  76                   8.60      0.18      8.07      8.60  FCV
  74                  44.47      0.46      0.00    134.40  FCV
  72                  61.88      0.88      0.00    128.57  FCV
  40                  38.83      0.79     24.68     38.83  FCV
  6                  171.32      0.61     17.44    171.32  FCV
  3                  109.44      0.42      0.00    154.53  FCV
  5                   53.07      0.38     24.48     53.07  FCV
   
   
  Node Results at 6:00:00 hrs:
  ------------------------------------------------------------------
                  Elevation    Demand      Head  Pressure  Chemical
  Node                    m       L/s         m         m      mg/L
  ------------------------------------------------------------------
  21                 783.00      0.00    806.82     23.78      0.00
  19                 749.13      0.00    765.12     15.95      0.00
  17                 742.02      0.00    754.14     12.09      0.00
  15                 741.85      0.00    762.33     20.44      0.00
  13                 756.95      0.00    788.31     31.29      0.00
  3                  741.12      0.00    761.72     20.56      0.00
  52                 783.00      0.00    806.82     23.78      0.00
  10                 749.13     56.25    765.09     15.93      0.00
  8                  741.85    113.94    762.29     20.40      0.00
  7                  742.02     28.80    753.85     11.81      0.00
  4                  756.95    159.66    772.99     16.01      0.00
  2                  741.12     75.00    760.59     19.43      0.00
  DMA4150_VeeranagereExOHT    749.13      0.00    787.23     38.03      0.00
  DMA4849_NRMohallaExOHT    742.02      0.00    762.43     20.37      0.00
  DMA4950_NRMohallaNewOHT    741.85      0.00    762.33     20.44      0.00
  DMA5200_UdayagiriNewOHT    741.12      0.00    786.09     44.88      0.00
  DVRJ-11            748.00      0.00    787.37     39.29      0.00
  DVRJ-8             755.00      0.00    788.15     33.08      0.00
  DMA5400_RajivnagarIStageNewOHT    756.95      0.00    788.31     31.29      0.00
  DVRJ-3             757.50      0.00    788.85     31.28      0.00
  DVRJ-12            748.23      0.00    787.36     39.05      0.00
  DVRJ-13            736.86      0.00    762.46     25.55      0.00
  DVRJ-10            740.78      0.00    787.41     46.53      0.00
  DVRJ-7             756.90      0.00    788.34     31.38      0.00
  DVRJ-9             738.31      0.00    787.55     49.14      0.00
  301-B              758.67   -217.00    772.06     13.36      0.00
  47                 757.50      0.00    806.78     49.18      0.00
  1                    0.00      0.00    788.34    786.77      0.00
  5                    0.00      0.00    762.94    761.42      0.00
  34                 783.00     45.68    806.80     23.75      0.00  Tank
  Veeranageeri       749.13    -38.70    765.11     15.95      0.00  Tank
  NR_mohalla2        742.02    -20.20    753.87     11.82      0.00  Tank
  NR_Mohalla1        741.85    -69.47    762.32     20.43      0.00  Tank
  Rajiv_nagar_II     773.35    -97.78    788.28     14.90      0.00  Tank
  Tippu_Park         741.12    -36.17    761.70     20.53      0.00  Tank
   
   
  Link Results at 6:00:00 hrs:
  --------------------------------------------------------
                       Flow  Velocity  Headloss   Setting
  Link                  L/s       m/s    /1000m          
  --------------------------------------------------------
  DVRTMP23            61.88      0.88      2.64    130.00
  DVRTMP4            171.32      0.66      0.73    130.00
  84                 217.00      1.11      2.24    130.00
  79                  17.55      0.25      0.25    130.00
  77                   8.60      0.18      0.27    100.00
  75                  44.47      0.46      0.68    130.00
  73                  61.88      0.88      2.64    130.00
  55                  38.83      0.79      2.71    130.00
  10                  56.25      0.80      2.22    130.00
  8                   28.80      0.59      1.56    130.00
  7                  113.94      1.18      3.86    130.00
  1                  159.66      2.26     15.29    130.00
  2                   75.00      4.24    110.38    130.00
  DVRTMP18            17.55      0.16      0.09    130.00
  DVRTMP17            17.55      0.10      0.03    130.00
  DVRTMP14           109.44      0.62      0.82    130.00
  DVRTMP3            171.32      0.87      1.45    130.00
  DVRTMP19            17.55      0.25      0.26    130.00
  DVRTMP22            44.47      0.46      0.68    130.00
  DVRTMP21             8.60      0.18      0.17    130.00
  DVRTMP20            53.07      0.38      0.37    130.00
  DVRTMP15            70.62      0.40      0.36    130.00
  DVRTMP16            38.83      0.79      2.71    130.00
  4                  109.44      0.42      0.32    130.00
  62                 108.50      0.00    -34.77      1.00  Pump
  61                   0.00      0.00      0.00      1.00  Pump
  60                 108.50      0.00    -34.77      1.00  Pump
  80                 217.00      1.11      0.00      0.00  FCV
  78                  17.55      0.25     22.12     17.55  FCV
  76                   8.60      0.18      8.29      8.60  FCV
  74                  44.47      0.46      0.00    134.40  FCV
  72                  61.88      0.88      0.00    128.57  FCV
  40                  38.83      0.79     24.37     38.83  FCV
  6                  171.32      0.61     17.93    171.32  FCV
  3                  109.44      0.42      0.00    154.53  FCV
  5                   53.07      0.38     24.46     53.07  FCV
   
   
  Node Results at 7:00:00 hrs:
  ------------------------------------------------------------------
                  Elevation    Demand      Head  Pressure  Chemical
  Node                    m       L/s         m         m      mg/L
  ------------------------------------------------------------------
  21                 783.00      0.00    806.99     23.94      0.00
  19                 749.13      0.00    763.44     14.29      0.00
  17                 742.02      0.00    752.40     10.36      0.00
  15                 741.85      0.00    760.82     18.93      0.00
  13                 756.95      0.00    786.75     29.74      0.00
  3                  741.12      0.00    760.93     19.77      0.00
  52                 783.00      0.00    806.99     23.94      0.00
  10                 749.13     70.31    763.41     14.25      0.00
  8                  741.85    142.43    760.75     18.86      0.00
  7                  742.02     36.00    752.11     10.07      0.00
  4                  756.95    199.57    763.62      6.66      0.00
  2                  741.12     93.75    759.24     18.08      0.00
  DMA4150_VeeranagereExOHT    749.13      0.00    785.68     36.48      0.00
  DMA4849_NRMohallaExOHT    742.02      0.00    760.92     18.86      0.00
  DMA4950_NRMohallaNewOHT    741.85      0.00    760.82     18.93      0.00
  DMA5200_UdayagiriNewOHT    741.12      0.00    784.54     43.33      0.00
  DVRJ-11            748.00      0.00    785.82     37.75      0.00
  DVRJ-8             755.00      0.00    786.59     31.53      0.00
  DMA5400_RajivnagarIStageNewOHT    756.95      0.00    786.75     29.74      0.00
  DVRJ-3             757.50      0.00    787.29     29.74      0.00
  DVRJ-12            748.23      0.00    785.81     37.50      0.00
  DVRJ-13            736.86      0.00    760.95     24.04      0.00
  DVRJ-10            740.78      0.00    785.85     44.98      0.00
  DVRJ-7             756.90      0.00    786.79     29.83      0.00
  DVRJ-9             738.31      0.00    786.00     47.59      0.00
  301-B              758.67   -217.00    772.22     13.53      0.00
  47                 757.50      0.00    806.94     49.35      0.00
  1                    0.00      0.00    786.79    785.22      0.00
  5                    0.00      0.00    761.43    759.90      0.00
  34                 783.00     45.68    806.97     23.92      0.00  Tank
  Veeranageeri       749.13    -52.76    763.44     14.28      0.00  Tank
  NR_mohalla2        742.02    -27.40    752.13     10.09      0.00  Tank
  NR_Mohalla1        741.85    -97.96    760.81     18.92      0.00  Tank
  Rajiv_nagar_II     773.35   -137.70    786.73     13.35      0.00  Tank
  Tippu_Park         741.12    -54.92    760.91     19.75      0.00  Tank
   
   
  Link Results at 7:00:00 hrs:
  --------------------------------------------------------
                       Flow  Velocity  Headloss   Setting
  Link                  L/s       m/s    /1000m          
  --------------------------------------------------------
  DVRTMP23            61.88      0.88      2.64    130.00
  DVRTMP4            171.32      0.66      0.73    130.00
  84                 217.00      1.11      2.24    130.00
  79                  17.55      0.25      0.26    130.00
  77                   8.60      0.18      0.27    100.00
  75                  44.47      0.46      0.68    130.00
  73                  61.88      0.88      2.64    130.00
  55                  38.83      0.79      2.71    130.00
  10                  70.31      0.99      3.34    130.00
  8                   36.00      0.73      2.35    130.00
  7                  142.43      1.48      5.83    130.00
  1                  199.57      2.82     23.11    130.00
  2                   93.75      5.31    166.86    130.00
  DVRTMP18            17.55      0.16      0.09    130.00
  DVRTMP17            17.55      0.10      0.03    130.00
  DVRTMP14           109.44      0.62      0.82    130.00
  DVRTMP3            171.32      0.87      1.44    130.00
  DVRTMP19            17.55      0.25      0.26    130.00
  DVRTMP22            44.47      0.46      0.68    130.00
  DVRTMP21             8.60      0.18      0.17    130.00
  DVRTMP20            53.07      0.38      0.37    130.00
  DVRTMP15            70.62      0.40      0.36    130.00
  DVRTMP16            38.83      0.79      2.71    130.00
  4                  109.44      0.42      0.32    130.00
  62                 108.50      0.00    -34.77      1.00  Pump
  61                   0.00      0.00      0.00      1.00  Pump
  60                 108.50      0.00    -34.77      1.00  Pump
  80                 217.00      1.11      0.00      0.00  FCV
  78                  17.55      0.25     22.24     17.55  FCV
  76                   8.60      0.18      8.52      8.60  FCV
  74                  44.47      0.46      0.00    134.40  FCV
  72                  61.88      0.88      0.00    128.57  FCV
  40                  38.83      0.79     23.61     38.83  FCV
  6                  171.32      0.61     19.65    171.32  FCV
  3                  109.44      0.42      0.00    154.53  FCV
  5                   53.07      0.38     24.43     53.07  FCV
   
   
  Node Results at 8:00:00 hrs:
  ------------------------------------------------------------------
                  Elevation    Demand      Head  Pressure  Chemical
  Node                    m       L/s         m         m      mg/L
  ------------------------------------------------------------------
  21                 783.00      0.00    806.92     23.87      0.00
  19                 749.13      0.00    761.16     12.01      0.00
  17                 742.02      0.00    751.31      9.27      0.00
  15                 741.85      0.00    758.68     16.80      0.00
  13                 756.95      0.00    784.57     27.57      0.00
  3                  741.12      0.00    759.74     18.58      0.00
  52                 783.00      0.00    806.92     23.87      0.00
  10                 749.13     70.31    761.13     11.97      0.00
  8                  741.85    142.43    758.62     16.73      0.00
  7                  742.02     36.00    751.02      8.98      0.00
  4                  756.95    199.57    761.44      4.48      0.00
  2                  741.12     93.75    758.04     16.89      0.00
  DMA4150_VeeranagereExOHT    749.13      0.00    783.50     34.30      0.00
  DMA4849_NRMohallaExOHT    742.02      0.00    758.78     16.73      0.00
  DMA4950_NRMohallaNewOHT    741.85      0.00    758.68     16.80      0.00
  DMA5200_UdayagiriNewOHT    741.12      0.00    782.36     41.15      0.00
  DVRJ-11            748.00      0.00    783.64     35.57      0.00
  DVRJ-8             755.00      0.00    784.41     29.35      0.00
  DMA5400_RajivnagarIStageNewOHT    756.95      0.00    784.57     27.57      0.00
  DVRJ-3             757.50      0.00    785.11     27.56      0.00
  DVRJ-12            748.23      0.00    783.63     35.32      0.00
  DVRJ-13            736.86      0.00    758.81     21.91      0.00
  DVRJ-10            740.78      0.00    783.67     42.80      0.00
  DVRJ-7             756.90      0.00    784.61     27.65      0.00
  DVRJ-9             738.31      0.00    783.82     45.41      0.00
  301-B              758.67   -217.00    772.15     13.45      0.00
  47                 757.50      0.00    806.87     49.27      0.00
  1                    0.00      0.00    784.61    783.04      0.00
  5                    0.00      0.00    759.29    757.77      0.00
  34                 783.00     45.68    806.89     23.85      0.00  Tank
  Veeranageeri       749.13    -52.76    761.16     12.01      0.00  Tank
  NR_mohalla2        742.02    -27.40    751.04      9.00      0.00  Tank
  NR_Mohalla1        741.85    -97.96    758.67     16.79      0.00  Tank
  Rajiv_nagar_II     773.35   -137.70    784.54     11.17      0.00  Tank
  Tippu_Park         741.12    -54.92    759.71     18.55      0.00  Tank
   
   
  Link Results at 8:00:00 hrs:
  --------------------------------------------------------
                       Flow  Velocity  Headloss   Setting
  Link                  L/s       m/s    /1000m          
  --------------------------------------------------------
  DVRTMP23            61.88      0.88      2.64    130.00
  DVRTMP4            171.32      0.66      0.73    130.00
  84                 217.00      1.11      2.25    130.00
  79                  17.55      0.25      0.26    130.00
  77                   8.60      0.18      0.27    100.00
  75                  44.47      0.46      0.68    130.00
  73                  61.88      0.88      2.64    130.00
  55                  38.83      0.79      2.71    130.00
  10                  70.31      0.99      3.35    130.00
  8                   36.00      0.73      2.36    130.00
  7                  142.43      1.48      5.83    130.00
  1                  199.57      2.82     23.11    130.00
  2                   93.75      5.31    166.86    130.00
  DVRTMP18            17.55      0.16      0.09    130.00
  DVRTMP17            17.55      0.10      0.03    130.00
  DVRTMP14           109.44      0.62      0.82    130.00
  DVRTMP3            171.32      0.87      1.44    130.00
  DVRTMP19            17.55      0.25      0.26    130.00
  DVRTMP22            44.47      0.46      0.68    130.00
  DVRTMP21             8.60      0.18      0.17    130.00
  DVRTMP20            53.07      0.38      0.37    130.00
  DVRTMP15            70.62      0.40      0.36    130.00
  DVRTMP16            38.83      0.79      2.71    130.00
  4                  109.44      0.42      0.32    130.00
  62                 108.50      0.00    -34.77      1.00  Pump
  61                   0.00      0.00      0.00      1.00  Pump
  60                 108.50      0.00    -34.77      1.00  Pump
  80                 217.00      1.11      0.00      0.00  FCV
  78                  17.55      0.25     22.34     17.55  FCV
  76                   8.60      0.18      7.47      8.60  FCV
  74                  44.47      0.46      0.00    134.40  FCV
  72                  61.88      0.88      0.00    128.57  FCV
  40                  38.83      0.79     22.62     38.83  FCV
  6                  171.32      0.61     21.76    171.32  FCV
  3                  109.44      0.42      0.00    154.53  FCV
  5                   53.07      0.38     24.38     53.07  FCV
   
   
  Node Results at 9:00:00 hrs:
  ------------------------------------------------------------------
                  Elevation    Demand      Head  Pressure  Chemical
  Node                    m       L/s         m         m      mg/L
  ------------------------------------------------------------------
  21                 783.00      0.00    806.94     23.89      0.00
  19                 749.13      0.00    761.16     12.01      0.00
  17                 742.02      0.00    751.31      9.27      0.00
  15                 741.85      0.00    756.91     15.03      0.00
  13                 756.95      0.00    782.39     25.39      0.00
  3                  741.12      0.00    758.54     17.38      0.00
  52                 783.00      0.00    806.94     23.89      0.00
  10                 749.13     56.25    761.13     11.98      0.00
  8                  741.85    113.94    756.86     14.98      0.00
  7                  742.02     28.80    751.03      8.99      0.00
  4                  756.95    159.66    767.08     10.10      0.00
  2                  741.12     75.00    757.41     16.26      0.00
  DMA4150_VeeranagereExOHT    749.13      0.00    781.32     32.12      0.00
  DMA4849_NRMohallaExOHT    742.02      0.00    757.01     14.96      0.00
  DMA4950_NRMohallaNewOHT    741.85      0.00    756.91     15.03      0.00
  DMA5200_UdayagiriNewOHT    741.12      0.00    780.17     38.97      0.00
  DVRJ-11            748.00      0.00    781.45     33.39      0.00
  DVRJ-8             755.00      0.00    782.23     27.17      0.00
  DMA5400_RajivnagarIStageNewOHT    756.95      0.00    782.39     25.39      0.00
  DVRJ-3             757.50      0.00    782.93     25.38      0.00
  DVRJ-12            748.23      0.00    781.44     33.14      0.00
  DVRJ-13            736.86      0.00    757.04     20.14      0.00
  DVRJ-10            740.78      0.00    781.49     40.62      0.00
  DVRJ-7             756.90      0.00    782.42     25.47      0.00
  DVRJ-9             738.31      0.00    781.63     43.23      0.00
  301-B              758.67   -217.00    772.17     13.48      0.00
  47                 757.50      0.00    806.90     49.30      0.00
  1                    0.00      0.00    782.42    780.86      0.00
  5                    0.00      0.00    757.52    756.00      0.00
  34                 783.00     45.68    806.92     23.87      0.00  Tank
  Veeranageeri       749.13    -38.70    761.16     12.00      0.00  Tank
  NR_mohalla2        742.02    -20.20    751.04      9.01      0.00  Tank
  NR_Mohalla1        741.85    -69.47    756.90     15.02      0.00  Tank
  Rajiv_nagar_II     773.35    -97.78    782.36      8.99      0.00  Tank
  Tippu_Park         741.12    -36.17    758.51     17.36      0.00  Tank
   
   
  Link Results at 9:00:00 hrs:
  --------------------------------------------------------
                       Flow  Velocity  Headloss   Setting
  Link                  L/s       m/s    /1000m          
  --------------------------------------------------------
  DVRTMP23            61.88      0.88      2.64    130.00
  DVRTMP4            171.32      0.66      0.73    130.00
  84                 217.00      1.11      2.24    130.00
  79                  17.55      0.25      0.26    130.00
  77                   8.60      0.18      0.27    100.00
  75                  44.47      0.46      0.67    130.00
  73                  61.88      0.88      2.64    130.00
  55                  38.83      0.79      2.71    130.00
  10                  56.25      0.80      2.21    130.00
  8                   28.80      0.59      1.56    130.00
  7                  113.94      1.18      3.86    130.00
  1                  159.66      2.26     15.29    130.00
  2                   75.00      4.24    110.37    130.00
  DVRTMP18            17.55      0.16      0.09    130.00
  DVRTMP17            17.55      0.10      0.03    130.00
  DVRTMP14           109.44      0.62      0.82    130.00
  DVRTMP3            171.32      0.87      1.45    130.00
  DVRTMP19            17.55      0.25      0.26    130.00
  DVRTMP22            44.47      0.46      0.68    130.00
  DVRTMP21             8.60      0.18      0.17    130.00
  DVRTMP20            53.07      0.38      0.37    130.00
  DVRTMP15            70.62      0.40      0.36    130.00
  DVRTMP16            38.83      0.79      2.71    130.00
  4                  109.44      0.42      0.32    130.00
  62                 108.50      0.00    -34.77      1.00  Pump
  61                   0.00      0.00      0.00      1.00  Pump
  60                 108.50      0.00    -34.77      1.00  Pump
  80                 217.00      1.11      0.00      0.00  FCV
  78                  17.55      0.25     20.16     17.55  FCV
  76                   8.60      0.18      5.69      8.60  FCV
  74                  44.47      0.46      0.00    134.40  FCV
  72                  61.88      0.88      0.00    128.57  FCV
  40                  38.83      0.79     21.63     38.83  FCV
  6                  171.32      0.61     23.97    171.32  FCV
  3                  109.44      0.42      0.00    154.53  FCV
  5                   53.07      0.38     23.97     53.07  FCV
   
   
  Node Results at 10:00:00 hrs:
  ------------------------------------------------------------------
                  Elevation    Demand      Head  Pressure  Chemical
  Node                    m       L/s         m         m      mg/L
  ------------------------------------------------------------------
  21                 783.00      0.00    806.88     23.83      0.00
  19                 749.13      0.00    761.16     12.00      0.00
  17                 742.02      0.00    751.31      9.27      0.00
  15                 741.85      0.00    756.89     15.01      0.00
  13                 756.95      0.00    782.41     25.41      0.00
  3                  741.12      0.00    757.75     16.60      0.00
  52                 783.00      0.00    806.88     23.83      0.00
  10                 749.13     28.12    761.15     11.99      0.00
  8                  741.85     56.97    756.87     14.99      0.00
  7                  742.02     14.40    751.04      9.00      0.00
  4                  756.95     79.83    778.15     21.15      0.00
  2                  741.12     37.50    757.42     16.27      0.00
  DMA4150_VeeranagereExOHT    749.13      0.00    781.34     32.14      0.00
  DMA4849_NRMohallaExOHT    742.02      0.00    756.99     14.94      0.00
  DMA4950_NRMohallaNewOHT    741.85      0.00    756.89     15.01      0.00
  DMA5200_UdayagiriNewOHT    741.12      0.00    780.19     38.99      0.00
  DVRJ-11            748.00      0.00    781.47     33.41      0.00
  DVRJ-8             755.00      0.00    782.25     27.19      0.00
  DMA5400_RajivnagarIStageNewOHT    756.95      0.00    782.41     25.41      0.00
  DVRJ-3             757.50      0.00    782.95     25.40      0.00
  DVRJ-12            748.23      0.00    781.46     33.16      0.00
  DVRJ-13            736.86      0.00    757.02     20.12      0.00
  DVRJ-10            740.78      0.00    781.51     40.64      0.00
  DVRJ-7             756.90      0.00    782.44     25.49      0.00
  DVRJ-9             738.31      0.00    781.65     43.25      0.00
  301-B              758.67   -217.00    772.11     13.41      0.00
  47                 757.50      0.00    806.83     49.23      0.00
  1                    0.00      0.00    782.44    780.88      0.00
  5                    0.00      0.00    757.50    755.98      0.00
  34                 783.00     45.68    806.85     23.81      0.00  Tank
  Veeranageeri       749.13    -10.57    761.15     12.00      0.00  Tank
  NR_mohalla2        742.02     -5.80    751.04      9.00      0.00  Tank
  NR_Mohalla1        741.85    -12.50    756.88     15.00      0.00  Tank
  Rajiv_nagar_II     773.35    -17.95    782.38      9.01      0.00  Tank
  Tippu_Park         741.12      1.33    757.72     16.57      0.00  Tank
   
   
  Link Results at 10:00:00 hrs:
  --------------------------------------------------------
                       Flow  Velocity  Headloss   Setting
  Link                  L/s       m/s    /1000m          
  --------------------------------------------------------
  DVRTMP23            61.88      0.88      2.64    130.00
  DVRTMP4            171.32      0.66      0.73    130.00
  84                 217.00      1.11      2.24    130.00
  79                  17.55      0.25      0.26    130.00
  77                   8.60      0.18      0.27    100.00
  75                  44.47      0.46      0.68    130.00
  73                  61.88      0.88      2.64    130.00
  55                  38.83      0.79      2.71    130.00
  10                  28.12      0.40      0.61    130.00
  8                   14.40      0.29      0.43    130.00
  7                   56.97      0.59      1.07    130.00
  1                   79.83      1.13      4.23    130.00
  2                   37.50      2.12     30.58    130.00
  DVRTMP18            17.55      0.16      0.09    130.00
  DVRTMP17            17.55      0.10      0.03    130.00
  DVRTMP14           109.44      0.62      0.82    130.00
  DVRTMP3            171.32      0.87      1.45    130.00
  DVRTMP19            17.55      0.25      0.26    130.00
  DVRTMP22            44.47      0.46      0.68    130.00
  DVRTMP21             8.60      0.18      0.17    130.00
  DVRTMP20            53.07      0.38      0.37    130.00
  DVRTMP15            70.62      0.40      0.36    130.00
  DVRTMP16            38.83      0.79      2.71    130.00
  4                  109.44      0.42      0.32    130.00
  62                 108.50      0.00    -34.77      1.00  Pump
  61                   0.00      0.00      0.00      1.00  Pump
  60                 108.50      0.00    -34.77      1.00  Pump
  80                 217.00      1.11      0.00      0.00  FCV
  78                  17.55      0.25     20.18     17.55  FCV
  76                   8.60      0.18      5.67      8.60  FCV
  74                  44.47      0.46      0.00    134.40  FCV
  72                  61.88      0.88      0.00    128.57  FCV
  40                  38.83      0.79     22.44     38.83  FCV
  6                  171.32      0.61     23.89    171.32  FCV
  3                  109.44      0.42      0.00    154.53  FCV
  5                   53.07      0.38     24.01     53.07  FCV
   
   
  Node Results at 11:00:00 hrs:
  ------------------------------------------------------------------
                  Elevation    Demand      Head  Pressure  Chemical
  Node                    m       L/s         m         m      mg/L
  ------------------------------------------------------------------
  21                 783.00      0.00    807.02     23.97      0.00
  19                 749.13      0.00    761.13     11.98      0.00
  17                 742.02      0.00    751.29      9.25      0.00
  15                 741.85      0.00    756.86     14.98      0.00
  13                 756.95      0.00    782.38     25.38      0.00
  3                  741.12      0.00    757.78     16.63      0.00
  52                 783.00      0.00    807.02     23.97      0.00
  10                 749.13     28.12    761.13     11.97      0.00
  8                  741.85     56.97    756.84     14.96      0.00
  7                  742.02     14.40 -1.55e+07 -1.55e+07      0.00
  4                  756.95     79.83    778.12     21.12      0.00
  2                  741.12     37.50    757.45     16.29      0.00
  DMA4150_VeeranagereExOHT    749.13      0.00    781.31     32.11      0.00
  DMA4849_NRMohallaExOHT    742.02      0.00    756.96     14.91      0.00
  DMA4950_NRMohallaNewOHT    741.85      0.00    756.86     14.98      0.00
  DMA5200_UdayagiriNewOHT    741.12      0.00    780.16     38.96      0.00
  DVRJ-11            748.00      0.00    781.44     33.38      0.00
  DVRJ-8             755.00      0.00    782.22     27.16      0.00
  DMA5400_RajivnagarIStageNewOHT    756.95      0.00    782.38     25.38      0.00
  DVRJ-3             757.50      0.00    782.92     25.37      0.00
  DVRJ-12            748.23      0.00    781.43     33.13      0.00
  DVRJ-13            736.86      0.00    756.99     20.09      0.00
  DVRJ-10            740.78      0.00    781.48     40.61      0.00
  DVRJ-7             756.90      0.00    782.41     25.46      0.00
  DVRJ-9             738.31      0.00    781.62     43.22      0.00
  301-B              758.67   -217.00    772.25     13.56      0.00
  47                 757.50      0.00    806.97     49.38      0.00
  1                    0.00      0.00    782.41    780.85      0.00
  5                    0.00      0.00    757.47    755.95      0.00
  34                 783.00     45.68    807.00     23.95      0.00  Tank
  Veeranageeri       749.13    -10.57    761.13     11.98      0.00  Tank
  NR_mohalla2        742.02      8.60    751.02      8.98      0.00  Tank
  NR_Mohalla1        741.85    -12.50    756.85     14.97      0.00  Tank
  Rajiv_nagar_II     773.35    -17.95    782.35      8.98      0.00  Tank
  Tippu_Park         741.12      1.33    757.75     16.60      0.00  Tank
   
   
  Link Results at 11:00:00 hrs:
  --------------------------------------------------------
                       Flow  Velocity  Headloss   Setting
  Link                  L/s       m/s    /1000m          
  --------------------------------------------------------
  DVRTMP23            61.88      0.88      2.64    130.00
  DVRTMP4            171.32      0.66      0.73    130.00
  84                 217.00      1.11      2.24    130.00
  79                  17.55      0.25      0.25    130.00
  77                   8.60      0.18      0.27    100.00
  75                  44.47      0.46      0.68    130.00
  73                  61.88      0.88      2.64    130.00
  55                  38.83      0.79      2.71    130.00
  10                  28.12      0.40      0.62    130.00
  8                    0.00      0.00      0.00    130.00
  7                   56.97      0.59      1.07    130.00
  1                   79.83      1.13      4.23    130.00
  2                   37.50      2.12     30.58    130.00
  DVRTMP18            17.55      0.16      0.09    130.00
  DVRTMP17            17.55      0.10      0.03    130.00
  DVRTMP14           109.44      0.62      0.82    130.00
  DVRTMP3            171.32      0.87      1.45    130.00
  DVRTMP19            17.55      0.25      0.26    130.00
  DVRTMP22            44.47      0.46      0.68    130.00
  DVRTMP21             8.60      0.18      0.17    130.00
  DVRTMP20            53.07      0.38      0.37    130.00
  DVRTMP15            70.62      0.40      0.36    130.00
  DVRTMP16            38.83      0.79      2.71    130.00
  4                  109.44      0.42      0.32    130.00
  62                 108.50      0.00    -34.77      1.00  Pump
  61                   0.00      0.00      0.00      1.00  Pump
  60                 108.50      0.00    -34.77      1.00  Pump
  80                 217.00      1.11      0.00      0.00  FCV
  78                  17.55      0.25     20.17     17.55  FCV
  76                   8.60      0.18      5.67      8.60  FCV
  74                  44.47      0.46      0.00    134.40  FCV
  72                  61.88      0.88      0.00    128.57  FCV
  40                  38.83      0.79     22.38     38.83  FCV
  6                  171.32      0.61     24.06    171.32  FCV
  3                  109.44      0.42      0.00    154.53  FCV
  5                   53.07      0.38     24.01     53.07  FCV
   
   
  Node Results at 12:00:00 hrs:
  ------------------------------------------------------------------
                  Elevation    Demand      Head  Pressure  Chemical
  Node                    m       L/s         m         m      mg/L
  ------------------------------------------------------------------
  21                 783.00      0.00    807.02     23.97      0.00
  19                 749.13      0.00    761.14     11.98      0.00
  17                 742.02      0.00    751.29      9.25      0.00
  15                 741.85      0.00    756.86     14.98      0.00
  13                 756.95      0.00    782.38     25.38      0.00
  3                  741.12      0.00    757.81     16.66      0.00
  52                 783.00      0.00    807.02     23.97      0.00
  10                 749.13     22.50    761.13     11.98      0.00
  8                  741.85     45.58    756.84     14.96      0.00
  7                  742.02     11.52    751.02      8.98      0.00
  4                  756.95     63.86    779.55     22.55      0.00
  2                  741.12     30.00    757.58     16.43      0.00
  DMA4150_VeeranagereExOHT    749.13      0.00    781.31     32.11      0.00
  DMA4849_NRMohallaExOHT    742.02      0.00    756.96     14.91      0.00
  DMA4950_NRMohallaNewOHT    741.85      0.00    756.86     14.98      0.00
  DMA5200_UdayagiriNewOHT    741.12      0.00    780.16     38.96      0.00
  DVRJ-11            748.00      0.00    781.44     33.38      0.00
  DVRJ-8             755.00      0.00    782.22     27.16      0.00
  DMA5400_RajivnagarIStageNewOHT    756.95      0.00    782.38     25.38      0.00
  DVRJ-3             757.50      0.00    782.92     25.37      0.00
  DVRJ-12            748.23      0.00    781.43     33.13      0.00
  DVRJ-13            736.86      0.00    756.99     20.09      0.00
  DVRJ-10            740.78      0.00    781.48     40.61      0.00
  DVRJ-7             756.90      0.00    782.41     25.46      0.00
  DVRJ-9             738.31      0.00    781.62     43.22      0.00
  301-B              758.67   -217.00    772.25     13.56      0.00
  47                 757.50      0.00    806.98     49.38      0.00
  1                    0.00      0.00    782.41    780.85      0.00
  5                    0.00      0.00    757.47    755.95      0.00
  34                 783.00     45.68    807.00     23.95      0.00  Tank
  Veeranageeri       749.13     -4.95    761.13     11.98      0.00  Tank
  NR_mohalla2        742.02     -2.92    751.02      8.99      0.00  Tank
  NR_Mohalla1        741.85     -1.11    756.85     14.97      0.00  Tank
  Rajiv_nagar_II     773.35     -1.99    782.35      8.98      0.00  Tank
  Tippu_Park         741.12      8.83    757.78     16.63      0.00  Tank
   
   
  Link Results at 12:00:00 hrs:
  --------------------------------------------------------
                       Flow  Velocity  Headloss   Setting
  Link                  L/s       m/s    /1000m          
  --------------------------------------------------------
  DVRTMP23            61.88      0.88      2.64    130.00
  DVRTMP4            171.32      0.66      0.73    130.00
  84                 217.00      1.11      2.24    130.00
  79                  17.55      0.25      0.26    130.00
  77                   8.60      0.18      0.27    100.00
  75                  44.47      0.46      0.68    130.00
  73                  61.88      0.88      2.64    130.00
  55                  38.83      0.79      2.71    130.00
  10                  22.50      0.32      0.40    130.00
  8                   11.52      0.23      0.28    130.00
  7                   45.58      0.47      0.71    130.00
  1                   63.86      0.90      2.80    130.00
  2                   30.00      1.70     20.23    130.00
  DVRTMP18            17.55      0.16      0.09    130.00
  DVRTMP17            17.55      0.10      0.03    130.00
  DVRTMP14           109.44      0.62      0.82    130.00
  DVRTMP3            171.32      0.87      1.45    130.00
  DVRTMP19            17.55      0.25      0.26    130.00
  DVRTMP22            44.47      0.46      0.68    130.00
  DVRTMP21             8.60      0.18      0.17    130.00
  DVRTMP20            53.07      0.38      0.37    130.00
  DVRTMP15            70.62      0.40      0.36    130.00
  DVRTMP16            38.83      0.79      2.71    130.00
  4                  109.44      0.42      0.32    130.00
  62                 108.50      0.00    -34.77      1.00  Pump
  61                   0.00      0.00      0.00      1.00  Pump
  60                 108.50      0.00    -34.77      1.00  Pump
  80                 217.00      1.11      0.00      0.00  FCV
  78                  17.55      0.25     20.17     17.55  FCV
  76                   8.60      0.18      5.66      8.60  FCV
  74                  44.47      0.46      0.00    134.40  FCV
  72                  61.88      0.88      0.00    128.57  FCV
  40                  38.83      0.79     22.35     38.83  FCV
  6                  171.32      0.61     24.06    171.32  FCV
  3                  109.44      0.42      0.00    154.53  FCV
  5                   53.07      0.38     24.01     53.07  FCV
   
   
  Node Results at 13:00:00 hrs:
  ------------------------------------------------------------------
                  Elevation    Demand      Head  Pressure  Chemical
  Node                    m       L/s         m         m      mg/L
  ------------------------------------------------------------------
  21                 783.00      0.00    806.83     23.78      0.00
  19                 749.13      0.00    761.23     12.08      0.00
  17                 742.02      0.00    751.38      9.34      0.00
  15                 741.85      0.00    756.88     15.00      0.00
  13                 756.95      0.00    782.38     25.38      0.00
  3                  741.12      0.00    758.00     16.85      0.00
  52                 783.00      0.00    806.83     23.78      0.00
  10                 749.13     22.50    761.22     12.07      0.00
  8                  741.85     45.58    756.87     14.99      0.00
  7                  742.02     11.52    751.11      9.07      0.00
  4                  756.95     63.86    779.55     22.56      0.00
  2                  741.12     30.00    757.77     16.62      0.00
  DMA4150_VeeranagereExOHT    749.13      0.00    781.31     32.11      0.00
  DMA4849_NRMohallaExOHT    742.02      0.00    756.98     14.93      0.00
  DMA4950_NRMohallaNewOHT    741.85      0.00    756.88     15.00      0.00
  DMA5200_UdayagiriNewOHT    741.12      0.00    780.17     38.97      0.00
  DVRJ-11            748.00      0.00    781.45     33.38      0.00
  DVRJ-8             755.00      0.00    782.22     27.17      0.00
  DMA5400_RajivnagarIStageNewOHT    756.95      0.00    782.38     25.38      0.00
  DVRJ-3             757.50      0.00    782.92     25.37      0.00
  DVRJ-12            748.23      0.00    781.44     33.14      0.00
  DVRJ-13            736.86      0.00    757.01     20.12      0.00
  DVRJ-10            740.78      0.00    781.48     40.61      0.00
  DVRJ-7             756.90      0.00    782.42     25.47      0.00
  DVRJ-9             738.31      0.00    781.62     43.22      0.00
  301-B              758.67   -217.00    772.06     13.37      0.00
  47                 757.50      0.00    806.78     49.19      0.00
  1                    0.00      0.00    782.42    780.85      0.00
  5                    0.00      0.00    757.49    755.98      0.00
  34                 783.00     45.68    806.81     23.76      0.00  Tank
  Veeranageeri       749.13     -4.95    761.23     12.07      0.00  Tank
  NR_mohalla2        742.02     -2.92    751.11      9.07      0.00  Tank
  NR_Mohalla1        741.85     -1.11    756.88     15.00      0.00  Tank
  Rajiv_nagar_II     773.35     -1.98    782.35      8.99      0.00  Tank
  Tippu_Park         741.12      8.83    757.97     16.82      0.00  Tank
   
   
  Link Results at 13:00:00 hrs:
  --------------------------------------------------------
                       Flow  Velocity  Headloss   Setting
  Link                  L/s       m/s    /1000m          
  --------------------------------------------------------
  DVRTMP23            61.88      0.88      2.64    130.00
  DVRTMP4            171.32      0.66      0.73    130.00
  84                 217.00      1.11      2.24    130.00
  79                  17.55      0.25      0.25    130.00
  77                   8.60      0.18      0.27    100.00
  75                  44.47      0.46      0.68    130.00
  73                  61.88      0.88      2.64    130.00
  55                  38.83      0.79      2.71    130.00
  10                  22.50      0.32      0.41    130.00
  8                   11.52      0.23      0.28    130.00
  7                   45.58      0.47      0.71    130.00
  1                   63.86      0.90      2.80    130.00
  2                   30.00      1.70     20.23    130.00
  DVRTMP18            17.55      0.16      0.09    130.00
  DVRTMP17            17.55      0.10      0.03    130.00
  DVRTMP14           109.44      0.62      0.82    130.00
  DVRTMP3            171.32      0.87      1.45    130.00
  DVRTMP19            17.55      0.25      0.26    130.00
  DVRTMP22            44.47      0.46      0.68    130.00
  DVRTMP21             8.60      0.18      0.17    130.00
  DVRTMP20            53.07      0.38      0.37    130.00
  DVRTMP15            70.62      0.40      0.36    130.00
  DVRTMP16            38.83      0.79      2.71    130.00
  4                  109.44      0.42      0.32    130.00
  62                 108.50      0.00    -34.77      1.00  Pump
  61                   0.00      0.00      0.00      1.00  Pump
  60                 108.50      0.00    -34.77      1.00  Pump
  80                 217.00      1.11      0.00      0.00  FCV
  78                  17.55      0.25     20.08     17.55  FCV
  76                   8.60      0.18      5.60      8.60  FCV
  74                  44.47      0.46      0.00    134.40  FCV
  72                  61.88      0.88      0.00    128.57  FCV
  40                  38.83      0.79     22.16     38.83  FCV
  6                  171.32      0.61     23.86    171.32  FCV
  3                  109.44      0.42      0.00    154.53  FCV
  5                   53.07      0.38     23.99     53.07  FCV
   
   
  Node Results at 14:00:00 hrs:
  ------------------------------------------------------------------
                  Elevation    Demand      Head  Pressure  Chemical
  Node                    m       L/s         m         m      mg/L
  ------------------------------------------------------------------
  21                 783.00      0.00    806.97     23.93      0.00
  19                 749.13      0.00    761.18     12.02      0.00
  17                 742.02      0.00    751.38      9.35      0.00
  15                 741.85      0.00    756.86     14.98      0.00
  13                 756.95      0.00    782.43     25.43      0.00
  3                  741.12      0.00    758.19     17.04      0.00
  52                 783.00      0.00    806.97     23.93      0.00
  10                 749.13     28.12    761.17     12.02      0.00
  8                  741.85     56.97    756.84     14.96      0.00
  7                  742.02     14.40    751.11      9.07      0.00
  4                  756.95     79.83    778.17     21.18      0.00
  2                  741.12     37.50    757.86     16.71      0.00
  DMA4150_VeeranagereExOHT    749.13      0.00    781.36     32.17      0.00
  DMA4849_NRMohallaExOHT    742.02      0.00    756.96     14.91      0.00
  DMA4950_NRMohallaNewOHT    741.85      0.00    756.86     14.98      0.00
  DMA5200_UdayagiriNewOHT    741.12      0.00    780.22     39.02      0.00
  DVRJ-11            748.00      0.00    781.50     33.43      0.00
  DVRJ-8             755.00      0.00    782.27     27.22      0.00
  DMA5400_RajivnagarIStageNewOHT    756.95      0.00    782.43     25.43      0.00
  DVRJ-3             757.50      0.00    782.97     25.42      0.00
  DVRJ-12            748.23      0.00    781.49     33.19      0.00
  DVRJ-13            736.86      0.00    756.99     20.09      0.00
  DVRJ-10            740.78      0.00    781.53     40.67      0.00
  DVRJ-7             756.90      0.00    782.47     25.52      0.00
  DVRJ-9             738.31      0.00    781.68     43.28      0.00
  301-B              758.67   -217.00    772.21     13.51      0.00
  47                 757.50      0.00    806.93     49.33      0.00
  1                    0.00      0.00    782.47    780.91      0.00
  5                    0.00      0.00    757.47    755.96      0.00
  34                 783.00     45.68    806.95     23.90      0.00  Tank
  Veeranageeri       749.13    -10.57    761.18     12.02      0.00  Tank
  NR_mohalla2        742.02     -5.80    751.12      9.08      0.00  Tank
  NR_Mohalla1        741.85    -12.50    756.85     14.97      0.00  Tank
  Rajiv_nagar_II     773.35    -17.95    782.41      9.04      0.00  Tank
  Tippu_Park         741.12      1.33    758.17     17.01      0.00  Tank
   
   
  Link Results at 14:00:00 hrs:
  --------------------------------------------------------
                       Flow  Velocity  Headloss   Setting
  Link                  L/s       m/s    /1000m          
  --------------------------------------------------------
  DVRTMP23            61.88      0.88      2.64    130.00
  DVRTMP4            171.32      0.66      0.73    130.00
  84                 217.00      1.11      2.24    130.00
  79                  17.55      0.25      0.26    130.00
  77                   8.60      0.18      0.27    100.00
  75                  44.47      0.46      0.68    130.00
  73                  61.88      0.88      2.64    130.00
  55                  38.83      0.79      2.71    130.00
  10                  28.12      0.40      0.61    130.00
  8                   14.40      0.29      0.43    130.00
  7                   56.97      0.59      1.07    130.00
  1                   79.83      1.13      4.23    130.00
  2                   37.50      2.12     30.58    130.00
  DVRTMP18            17.55      0.16      0.09    130.00
  DVRTMP17            17.55      0.10      0.03    130.00
  DVRTMP14           109.44      0.62      0.82    130.00
  DVRTMP3            171.32      0.87      1.45    130.00
  DVRTMP19            17.55      0.25      0.26    130.00
  DVRTMP22            44.47      0.46      0.68    130.00
  DVRTMP21             8.60      0.18      0.17    130.00
  DVRTMP20            53.07      0.38      0.37    130.00
  DVRTMP15            70.62      0.40      0.36    130.00
  DVRTMP16            38.83      0.79      2.71    130.00
  4                  109.44      0.42      0.32    130.00
  62                 108.50      0.00    -34.77      1.00  Pump
  61                   0.00      0.00      0.00      1.00  Pump
  60                 108.50      0.00    -34.77      1.00  Pump
  80                 217.00      1.11      0.00      0.00  FCV
  78                  17.55      0.25     20.18     17.55  FCV
  76                   8.60      0.18      5.58      8.60  FCV
[...]
  8                  741.85     56.97    756.93     15.05      0.00
  7                  742.02     14.40    751.05      9.01      0.00
  4                  756.95     79.83    778.20     21.21      0.00
  2                  741.12     37.50    757.71     16.55      0.00
  DMA4150_VeeranagereExOHT    749.13      0.00    781.39     32.20      0.00
  DMA4849_NRMohallaExOHT    742.02      0.00    757.04     14.99      0.00
  DMA4950_NRMohallaNewOHT    741.85      0.00    756.94     15.06      0.00
  DMA5200_UdayagiriNewOHT    741.12      0.00    780.25     39.05      0.00
  DVRJ-11            748.00      0.00    781.53     33.46      0.00
  DVRJ-8             755.00      0.00    782.30     27.25      0.00
  DMA5400_RajivnagarIStageNewOHT    756.95      0.00    782.46     25.46      0.00
  DVRJ-3             757.50      0.00    783.00     25.45      0.00
  DVRJ-12            748.23      0.00    781.52     33.22      0.00
  DVRJ-13            736.86      0.00    757.07     20.17      0.00
  DVRJ-10            740.78      0.00    781.56     40.70      0.00
  DVRJ-7             756.90      0.00    782.50     25.55      0.00
  DVRJ-9             738.31      0.00    781.71     43.31      0.00
  301-B              758.67   -217.00    772.23     13.54      0.00
  47                 757.50      0.00    806.95     49.35      0.00
  1                    0.00      0.00    782.50    780.94      0.00
  5                    0.00      0.00    757.55    756.04      0.00
  34                 783.00     45.68    806.97     23.93      0.00  Tank
  Veeranageeri       749.13    -10.57    761.17     12.01      0.00  Tank
  NR_mohalla2        742.02     -5.80    751.05      9.01      0.00  Tank
  NR_Mohalla1        741.85    -12.50    756.94     15.06      0.00  Tank
  Rajiv_nagar_II     773.35    -17.95    782.44      9.07      0.00  Tank
  Tippu_Park         741.12      1.33    758.01     16.86      0.00  Tank
   
   
  Link Results at 20:00:00 hrs:
  --------------------------------------------------------
                       Flow  Velocity  Headloss   Setting
  Link                  L/s       m/s    /1000m          
  --------------------------------------------------------
  DVRTMP23            61.88      0.88      2.64    130.00
  DVRTMP4            171.32      0.66      0.73    130.00
  84                 217.00      1.11      2.25    130.00
  79                  17.55      0.25      0.25    130.00
  77                   8.60      0.18      0.27    100.00
  75                  44.47      0.46      0.68    130.00
  73                  61.88      0.88      2.64    130.00
  55                  38.83      0.79      2.71    130.00
  10                  28.12      0.40      0.61    130.00
  8                   14.40      0.29      0.43    130.00
  7                   56.97      0.59      1.06    130.00
  1                   79.83      1.13      4.23    130.00
  2                   37.50      2.12     30.57    130.00
  DVRTMP18            17.55      0.16      0.09    130.00
  DVRTMP17            17.55      0.10      0.03    130.00
  DVRTMP14           109.44      0.62      0.82    130.00
  DVRTMP3            171.32      0.87      1.44    130.00
  DVRTMP19            17.55      0.25      0.26    130.00
  DVRTMP22            44.47      0.46      0.68    130.00
  DVRTMP21             8.60      0.18      0.17    130.00
  DVRTMP20            53.07      0.38      0.37    130.00
  DVRTMP15            70.62      0.40      0.36    130.00
  DVRTMP16            38.83      0.79      2.71    130.00
  4                  109.44      0.42      0.32    130.00
  62                 108.50      0.00    -34.77      1.00  Pump
  61                   0.00      0.00      0.00      1.00  Pump
  60                 108.50      0.00    -34.77      1.00  Pump
  80                 217.00      1.11      0.00      0.00  FCV
  78                  17.55      0.25     20.22     17.55  FCV
  76                   8.60      0.18      5.72      8.60  FCV
  74                  44.47      0.46      0.00    134.40  FCV
  72                  61.88      0.88      0.00    128.57  FCV
  40                  38.83      0.79     22.21     38.83  FCV
  6                  171.32      0.61     23.95    171.32  FCV
  3                  109.44      0.42      0.00    154.53  FCV
  5                   53.07      0.38     24.01     53.07  FCV
   
   
  Node Results at 21:00:00 hrs:
  ------------------------------------------------------------------
                  Elevation    Demand      Head  Pressure  Chemical
  Node                    m       L/s         m         m      mg/L
  ------------------------------------------------------------------
  21                 783.00      0.00    807.01     23.96      0.00
  19                 749.13      0.00    761.13     11.98      0.00
  17                 742.02      0.00    751.29      9.25      0.00
  15                 741.85      0.00    756.86     14.98      0.00
  13                 756.95      0.00    782.38     25.38      0.00
  3                  741.12      0.00    758.07     16.92      0.00
  52                 783.00      0.00    807.01     23.96      0.00
  10                 749.13     22.50    761.13     11.97      0.00
  8                  741.85     45.58    756.84     14.96      0.00
  7                  742.02     11.52 -1.24e+07 -1.24e+07      0.00
  4                  756.95     63.86    779.55     22.55      0.00
  2                  741.12     30.00    757.84     16.69      0.00
  DMA4150_VeeranagereExOHT    749.13      0.00    781.31     32.11      0.00
  DMA4849_NRMohallaExOHT    742.02      0.00    756.96     14.91      0.00
  DMA4950_NRMohallaNewOHT    741.85      0.00    756.86     14.98      0.00
  DMA5200_UdayagiriNewOHT    741.12      0.00    780.16     38.96      0.00
  DVRJ-11            748.00      0.00    781.44     33.38      0.00
  DVRJ-8             755.00      0.00    782.22     27.16      0.00
  DMA5400_RajivnagarIStageNewOHT    756.95      0.00    782.38     25.38      0.00
  DVRJ-3             757.50      0.00    782.92     25.37      0.00
  DVRJ-12            748.23      0.00    781.43     33.13      0.00
  DVRJ-13            736.86      0.00    756.99     20.09      0.00
  DVRJ-10            740.78      0.00    781.48     40.61      0.00
  DVRJ-7             756.90      0.00    782.41     25.46      0.00
  DVRJ-9             738.31      0.00    781.62     43.22      0.00
  301-B              758.67   -217.00    772.24     13.55      0.00
  47                 757.50      0.00    806.96     49.37      0.00
  1                    0.00      0.00    782.41    780.85      0.00
  5                    0.00      0.00    757.47    755.95      0.00
  34                 783.00     45.68    806.99     23.94      0.00  Tank
  Veeranageeri       749.13     -4.95    761.13     11.98      0.00  Tank
  NR_mohalla2        742.02      8.60    751.02      8.98      0.00  Tank
  NR_Mohalla1        741.85     -1.11    756.85     14.97      0.00  Tank
  Rajiv_nagar_II     773.35     -1.98    782.35      8.98      0.00  Tank
  Tippu_Park         741.12      8.83    758.04     16.89      0.00  Tank
   
   
  Link Results at 21:00:00 hrs:
  --------------------------------------------------------
                       Flow  Velocity  Headloss   Setting
  Link                  L/s       m/s    /1000m          
  --------------------------------------------------------
  DVRTMP23            61.88      0.88      2.64    130.00
  DVRTMP4            171.32      0.66      0.73    130.00
  84                 217.00      1.11      2.24    130.00
  79                  17.55      0.25      0.26    130.00
  77                   8.60      0.18      0.27    100.00
  75                  44.47      0.46      0.68    130.00
  73                  61.88      0.88      2.64    130.00
  55                  38.83      0.79      2.71    130.00
  10                  22.50      0.32      0.40    130.00
  8                    0.00      0.00      0.00    130.00
  7                   45.58      0.47      0.71    130.00
  1                   63.86      0.90      2.80    130.00
  2                   30.00      1.70     20.23    130.00
  DVRTMP18            17.55      0.16      0.09    130.00
  DVRTMP17            17.55      0.10      0.03    130.00
  DVRTMP14           109.44      0.62      0.82    130.00
  DVRTMP3            171.32      0.87      1.45    130.00
  DVRTMP19            17.55      0.25      0.26    130.00
  DVRTMP22            44.47      0.46      0.68    130.00
  DVRTMP21             8.60      0.18      0.17    130.00
  DVRTMP20            53.07      0.38      0.37    130.00
  DVRTMP15            70.62      0.40      0.36    130.00
  DVRTMP16            38.83      0.79      2.71    130.00
  4                  109.44      0.42      0.32    130.00
  62                 108.50      0.00    -34.77      1.00  Pump
  61                   0.00      0.00      0.00      1.00  Pump
  60                 108.50      0.00    -34.77      1.00  Pump
  80                 217.00      1.11      0.00      0.00  FCV
  78                  17.55      0.25     20.17     17.55  FCV
  76                   8.60      0.18      5.67      8.60  FCV
  74                  44.47      0.46      0.00    134.40  FCV
  72                  61.88      0.88      0.00    128.57  FCV
  40                  38.83      0.79     22.09     38.83  FCV
  6                  171.32      0.61     24.05    171.32  FCV
  3                  109.44      0.42      0.00    154.53  FCV
  5                   53.07      0.38     24.01     53.07  FCV
   
   
  Node Results at 22:00:00 hrs:
  ------------------------------------------------------------------
                  Elevation    Demand      Head  Pressure  Chemical
  Node                    m       L/s         m         m      mg/L
  ------------------------------------------------------------------
  21                 783.00      0.00    806.80     23.76      0.00
  19                 749.13      0.00    761.25     12.10      0.00
  17                 742.02      0.00    751.34      9.31      0.00
  15                 741.85      0.00    756.86     14.98      0.00
  13                 756.95      0.00    782.38     25.38      0.00
  3                  741.12      0.00    758.26     17.11      0.00
  52                 783.00      0.00    806.80     23.76      0.00
  10                 749.13     16.88    761.25     12.09      0.00
  8                  741.85     34.18    756.85     14.97      0.00
  7                  742.02      8.64    751.07      9.03      0.00
  4                  756.95     47.90    780.71     23.71      0.00
  2                  741.12     22.50    758.12     16.96      0.00
  DMA4150_VeeranagereExOHT    749.13      0.00    781.31     32.11      0.00
  DMA4849_NRMohallaExOHT    742.02      0.00    756.96     14.91      0.00
  DMA4950_NRMohallaNewOHT    741.85      0.00    756.86     14.98      0.00
  DMA5200_UdayagiriNewOHT    741.12      0.00    780.16     38.97      0.00
  DVRJ-11            748.00      0.00    781.44     33.38      0.00
  DVRJ-8             755.00      0.00    782.22     27.16      0.00
  DMA5400_RajivnagarIStageNewOHT    756.95      0.00    782.38     25.38      0.00
  DVRJ-3             757.50      0.00    782.92     25.37      0.00
  DVRJ-12            748.23      0.00    781.43     33.14      0.00
  DVRJ-13            736.86      0.00    756.99     20.09      0.00
  DVRJ-10            740.78      0.00    781.48     40.61      0.00
  DVRJ-7             756.90      0.00    782.42     25.46      0.00
  DVRJ-9             738.31      0.00    781.62     43.22      0.00
  301-B              758.67   -217.00    772.04     13.34      0.00
  47                 757.50      0.00    806.76     49.16      0.00
  1                    0.00      0.00    782.42    780.85      0.00
  5                    0.00      0.00    757.47    755.96      0.00
  34                 783.00     45.68    806.78     23.73      0.00  Tank
  Veeranageeri       749.13      0.68    761.25     12.09      0.00  Tank
  NR_mohalla2        742.02     -0.04    751.07      9.04      0.00  Tank
  NR_Mohalla1        741.85     10.29    756.85     14.97      0.00  Tank
  Rajiv_nagar_II     773.35     13.98    782.35      8.98      0.00  Tank
  Tippu_Park         741.12     16.33    758.23     17.08      0.00  Tank
   
   
  Link Results at 22:00:00 hrs:
  --------------------------------------------------------
                       Flow  Velocity  Headloss   Setting
  Link                  L/s       m/s    /1000m          
  --------------------------------------------------------
  DVRTMP23            61.88      0.88      2.64    130.00
  DVRTMP4            171.32      0.66      0.73    130.00
  84                 217.00      1.11      2.24    130.00
  79                  17.55      0.25      0.26    130.00
  77                   8.60      0.18      0.27    100.00
  75                  44.47      0.46      0.68    130.00
  73                  61.88      0.88      2.64    130.00
  55                  38.83      0.79      2.71    130.00
  10                  16.88      0.24      0.24    130.00
  8                    8.64      0.18      0.17    130.00
  7                   34.18      0.36      0.42    130.00
  1                   47.90      0.68      1.64    130.00
  2                   22.50      1.27     11.88    130.00
  DVRTMP18            17.55      0.16      0.09    130.00
  DVRTMP17            17.55      0.10      0.03    130.00
  DVRTMP14           109.44      0.62      0.82    130.00
  DVRTMP3            171.32      0.87      1.45    130.00
  DVRTMP19            17.55      0.25      0.26    130.00
  DVRTMP22            44.47      0.46      0.68    130.00
  DVRTMP21             8.60      0.18      0.17    130.00
  DVRTMP20            53.07      0.38      0.37    130.00
  DVRTMP15            70.62      0.40      0.36    130.00
  DVRTMP16            38.83      0.79      2.71    130.00
  4                  109.44      0.42      0.32    130.00
  62                 108.50      0.00    -34.77      1.00  Pump
  61                   0.00      0.00      0.00      1.00  Pump
  60                 108.50      0.00    -34.77      1.00  Pump
  80                 217.00      1.11      0.00      0.00  FCV
  78                  17.55      0.25     20.06     17.55  FCV
  76                   8.60      0.18      5.62      8.60  FCV
  74                  44.47      0.46      0.00    134.40  FCV
  72                  61.88      0.88      0.00    128.57  FCV
  40                  38.83      0.79     21.90     38.83  FCV
  6                  171.32      0.61     23.84    171.32  FCV
  3                  109.44      0.42      0.00    154.53  FCV
  5                   53.07      0.38     24.01     53.07  FCV
   
   
  Node Results at 23:00:00 hrs:
  ------------------------------------------------------------------
                  Elevation    Demand      Head  Pressure  Chemical
  Node                    m       L/s         m         m      mg/L
  ------------------------------------------------------------------
  21                 783.00      0.00    807.01     23.96      0.00
  19                 749.13      0.00    761.28     12.13      0.00
  17                 742.02      0.00    751.34      9.30      0.00
  15                 741.85      0.00    757.08     15.20      0.00
  13                 756.95      0.00    782.60     25.60      0.00
  3                  741.12      0.00    758.62     17.46      0.00
  52                 783.00      0.00    807.01     23.96      0.00
  10                 749.13     11.25    761.28     12.12      0.00
  8                  741.85     22.79    757.08     15.20      0.00
  7                  742.02      5.76    751.07      9.03      0.00
  4                  756.95     31.93    781.80     24.80      0.00
  2                  741.12     15.00    758.53     17.38      0.00
  DMA4150_VeeranagereExOHT    749.13      0.00    781.53     32.33      0.00
  DMA4849_NRMohallaExOHT    742.02      0.00    757.18     15.13      0.00
  DMA4950_NRMohallaNewOHT    741.85      0.00    757.08     15.20      0.00
  DMA5200_UdayagiriNewOHT    741.12      0.00    780.39     39.19      0.00
  DVRJ-11            748.00      0.00    781.67     33.60      0.00
  DVRJ-8             755.00      0.00    782.44     27.39      0.00
  DMA5400_RajivnagarIStageNewOHT    756.95      0.00    782.60     25.60      0.00
  DVRJ-3             757.50      0.00    783.14     25.59      0.00
  DVRJ-12            748.23      0.00    781.66     33.36      0.00
  DVRJ-13            736.86      0.00    757.21     20.31      0.00
  DVRJ-10            740.78      0.00    781.70     40.83      0.00
  DVRJ-7             756.90      0.00    782.64     25.69      0.00
  DVRJ-9             738.31      0.00    781.84     43.44      0.00
  301-B              758.67   -217.00    772.24     13.55      0.00
  47                 757.50      0.00    806.97     49.37      0.00
  1                    0.00      0.00    782.64    781.07      0.00
  5                    0.00      0.00    757.69    756.18      0.00
  34                 783.00     45.68    806.99     23.94      0.00  Tank
  Veeranageeri       749.13      6.30    761.28     12.12      0.00  Tank
  NR_mohalla2        742.02      2.84    751.07      9.03      0.00  Tank
  NR_Mohalla1        741.85     21.68    757.08     15.20      0.00  Tank
  Rajiv_nagar_II     773.35     29.95    782.57      9.20      0.00  Tank
  Tippu_Park         741.12     23.83    758.59     17.44      0.00  Tank
   
   
  Link Results at 23:00:00 hrs:
  --------------------------------------------------------
                       Flow  Velocity  Headloss   Setting
  Link                  L/s       m/s    /1000m          
  --------------------------------------------------------
  DVRTMP23            61.88      0.88      2.64    130.00
  DVRTMP4            171.32      0.66      0.73    130.00
  84                 217.00      1.11      2.24    130.00
  79                  17.55      0.25      0.26    130.00
  77                   8.60      0.18      0.27    100.00
  75                  44.47      0.46      0.68    130.00
  73                  61.88      0.88      2.64    130.00
  55                  38.83      0.79      2.71    130.00
  10                  11.25      0.16      0.11    130.00
  8                    5.76      0.12      0.07    130.00
  7                   22.79      0.24      0.19    130.00
  1                   31.93      0.45      0.78    130.00
  2                   15.00      0.85      5.60    130.00
  DVRTMP18            17.55      0.16      0.09    130.00
  DVRTMP17            17.55      0.10      0.03    130.00
  DVRTMP14           109.44      0.62      0.82    130.00
  DVRTMP3            171.32      0.87      1.45    130.00
  DVRTMP19            17.55      0.25      0.26    130.00
  DVRTMP22            44.47      0.46      0.68    130.00
  DVRTMP21             8.60      0.18      0.17    130.00
  DVRTMP20            53.07      0.38      0.37    130.00
  DVRTMP15            70.62      0.40      0.36    130.00
  DVRTMP16            38.83      0.79      2.71    130.00
  4                  109.44      0.42      0.32    130.00
  62                 108.50      0.00    -34.77      1.00  Pump
  61                   0.00      0.00      0.00      1.00  Pump
  60                 108.50      0.00    -34.77      1.00  Pump
  80                 217.00      1.11      0.00      0.00  FCV
  78                  17.55      0.25     20.25     17.55  FCV
  76                   8.60      0.18      5.84      8.60  FCV
  74                  44.47      0.46      0.00    134.40  FCV
  72                  61.88      0.88      0.00    128.57  FCV
  40                  38.83      0.79     21.77     38.83  FCV
  6                  171.32      0.61     23.83    171.32  FCV
  3                  109.44      0.42      0.00    154.53  FCV
  5                   53.07      0.38     24.01     53.07  FCV
   